17
Properties=species:S:1:pos:R:3 -1640.586612472809=T 10.629465=T 11.78963=T -8.5812=T -6.3957=T -9.895=T 0.9388=T 0.0312=T 3.26=T 9.45713=T -2.92352=T 8.0673722648=T 11.340131518=T 0.2127575=T pbc="F F F"
C        0.96885180       0.01052453      -0.04437954
C        2.48066069      -0.00818521       0.01317466
C        3.33827727      -0.73369754      -1.02354262
C        2.75885049      -1.51424416      -2.18338060
C        3.32736363       0.76992289      -0.98501816
N        4.53491090       1.50388944      -0.65869906
H        0.56587559       0.84558778       0.54944540
H        0.53220838      -0.91996171       0.35196843
H        0.59943474       0.13582666      -1.07218838
H        2.89360181      -0.04031731       1.02688884
H        4.24508599      -1.18359487      -0.60359392
H        1.86155990      -1.03320781      -2.59604768
H        2.47835964      -2.53492140      -1.88000428
H        3.49131841      -1.59687060      -3.00056274
H        2.75934543       1.24671345      -1.79222083
H        5.14694097       0.93171379      -0.07211525
H        4.30505436       2.33792206      -0.11063429
