16
Properties=species:S:1:pos:R:3 -1635.831478546345=T 11.880873=T 12.97096=T -8.8613=T -6.7928=T -9.614=T 0.9297=T 0.0334=T 2.285=T 9.27676=T -1.84663=T 4.3443702512=T 10.2812166864=T 0.334797232=T pbc="F F F"
C        0.82769023       0.18182362       0.29827170
C        2.27716965      -0.09661524      -0.06995590
C        3.31936985       0.85935448       0.56888451
N        3.60156211      -0.16141640       1.61779728
C        2.95077848      -1.22841493       0.78857240
C        3.86335247      -2.09227197       0.05425945
C        4.65495053      -2.79920876      -0.53931672
H        0.17289079      -0.64621321      -0.01167619
H        0.46884346       1.09601008      -0.19786995
H        0.71721025       0.31946676       1.38414176
H        2.39017677      -0.24331576      -1.15172234
H        2.93240012       1.80963756       0.97045957
H        4.16647480       1.07037402      -0.10583740
H        4.59458368      -0.33380002       1.79025710
H        2.24497073      -1.84720990       1.37044821
H        5.34756606      -3.42468033      -1.06434348
