13
Properties=species:S:1:pos:R:3 -1358.4115692104226=T 10.506316=T 10.40134=T -8.3721=T -6.4292=T -8.821=T 0.9742=T -0.706=T 0.112=T 8.37482=T 0.54817=T 4.3075340106=T 4.8515349842=T 0.312395081=T pbc="F F F"
O        1.10174339      -0.01012136      -0.43529238
C        2.23845505       0.11322954       0.00705834
N        2.97086917       1.27557954      -0.07159509
N        4.29575804       1.37669612       0.49364413
C        4.43198860       2.82956917       0.80880906
C        3.35851627       3.49651020      -0.02549534
C        2.51625898       2.54618459      -0.46188277
H        2.82271493      -0.69346609       0.49878567
H        4.92768088       1.19003222      -0.29613094
H        5.45791009       3.15146906       0.58317947
H        4.25804889       3.00076621       1.88783439
H        3.23612742       4.56801201      -0.15461937
H        1.57479829       2.61590880      -0.99900517
