20
Properties=species:S:1:pos:R:3 -1913.6687399027671=T 11.689045=T 13.11898=T -11.0162=T -8.6993=T -12.371=T 0.9648=T 0.0643=T 3.042=T 12.16975=T -2.76949=T 10.4851364606=T 10.8996464558=T 0.227452727=T pbc="F F F"
C        1.08775963      -0.11396567       0.10097362
C        2.61260365      -0.24644986       0.11000567
C        3.32416609       1.09184803      -0.11423292
C        4.85984861       1.05779781      -0.01087554
C        5.50466167       0.14913278      -1.06543331
C        5.43295867       2.47744360      -0.10530225
H        0.59717494      -1.08642728       0.25221949
H        0.73050026       0.29473805      -0.85687478
H        0.74242776       0.56273310       0.89786854
H        2.91661692      -0.96919538      -0.66458101
H        2.93866351      -0.67379283       1.07450739
H        2.94306685       1.81948546       0.62469056
H        3.04228924       1.49215104      -1.10641669
H        5.11614312       0.65397990       0.98696928
H        5.25862756       0.49722703      -2.08229002
H        5.17071931      -0.89422864      -0.97666518
H        6.60084679       0.15482129      -0.96888786
H        5.21241836       2.92110162      -1.08986592
H        6.52569977       2.47787835       0.02246681
H        5.00167729       3.13714162       0.66241410
