14
Properties=species:S:1:pos:R:3 -1524.6704925255049=T 11.592054=T 13.48628=T -10.0146=T -7.7949=T -9.627=T 0.7238=T -0.3092=T 1.239=T 9.18245=T -0.89022=T 4.1497742242=T 9.9519594648=T 0.335928396=T pbc="F F F"
C        0.94539505      -0.01009396       0.00808823
C        2.39921072      -0.00896327       0.00068094
C        3.61349132       0.00178273      -0.00018631
C        5.07921703       0.00184277      -0.02224976
C        5.65556566      -0.77420955      -1.23213087
C        5.60330937       1.37971897       0.00307035
N        6.04870623       2.45724221       0.01356253
H        0.55518565       1.01813926       0.02078785
H        0.55369472      -0.53064937       0.89413253
H        0.54446171      -0.51167041      -0.88478056
H        5.44446224      -0.47967177       0.90409495
H        5.32432204      -0.31384559      -2.17067354
H        5.29621263      -1.80980649      -1.19947601
H        6.75225563      -0.76983552      -1.19904033
