16
Properties=species:S:1:pos:R:3 -1680.5785618625548=T 12.03274=T 12.3972=T -8.0607=T -6.0738=T -8.042=T 0.6465=T -0.8573=T 0.668=T 7.58642=T -0.08107=T 4.4228657878=T 7.2537141398=T 0.521360619=T pbc="F F F"
C        0.93773695       0.09736912      -0.02419987
C        2.42919359       0.08478986      -0.01074145
C        3.28626193       1.13007747       0.09160546
C        4.67368349       0.64345246       0.05426946
C        4.67832615      -0.70188233      -0.07616242
C        3.25277491      -1.20252052      -0.08817856
N        2.98381659      -2.15518665      -1.17696165
H        0.54520904       1.12301019      -0.02409264
H        0.51654123      -0.42388289       0.85189881
H        0.53794053      -0.41556789      -0.91634105
H        3.00353392       2.18021696       0.18490997
H        5.55235426       1.28435020       0.12940766
H        5.53948554      -1.36409822      -0.14008572
H        3.09008254      -1.74666120       0.86624959
H        3.10617125      -1.67415383      -2.07311806
H        2.00640810      -2.45752274      -1.14121951
