13
Properties=species:S:1:pos:R:3 -1378.1960735892399=T 9.802497=T 10.59398=T -9.905=T -7.9663=T -10.642=T 0.993=T -0.5058=T -0.008=T 10.17378=T 0.62387=T 4.309939339=T 12.0600314298=T 0.220265245=T pbc="F F F"
C        1.23039692       0.03670470      -0.16120894
N        2.61236076       0.40750682       0.10329644
C        3.61700981      -0.64048022       0.21746325
C        3.33619231      -1.56847574       1.31846225
N        3.09118489      -2.31736241       2.17793310
C        3.01708354       1.71477468       0.23689523
O        4.16716789       2.07825686       0.44732892
H        0.62294131       0.94886653      -0.20850089
H        0.83626472      -0.60775261       0.63864928
H        1.14244575      -0.49411604      -1.12228825
H        4.58005277      -0.13401574       0.39174692
H        3.68953234      -1.21968421      -0.71917977
H        2.16411698       2.41982736       0.12296247
