13
Properties=species:S:1:pos:R:3 -1297.8235629382878=T 10.811588=T 11.43355=T -9.6429=T -7.4535=T -10.009=T 1.1305=T -0.4608=T 0.375=T 9.63062=T 0.26792=T 4.405036601=T 10.9996535634=T 0.532410561=T pbc="F F F"
N        1.01558247      -0.03404146       0.32668103
C        2.46136463      -0.02796776      -0.01574835
C        2.63791187      -0.77579637      -1.32183456
N        3.34922847      -0.29685096      -2.26876406
O        3.38990306      -1.18447016      -3.36949396
C        2.96407828       1.34423254      -0.04884669
C        3.36475669       2.48696422       0.00163529
H        0.86571873       0.59323270       1.12037343
H        0.75016632      -0.97177977       0.64045074
H        3.07495491      -0.56987415       0.73914763
H        2.14217444      -1.75289029      -1.40768926
H        3.93472299      -0.68637603      -4.00563467
H        3.72026713       3.49686751       0.01790343
