13
Properties=species:S:1:pos:R:3 -1315.9444622545075=T 8.92516=T 9.90902=T -10.4648=T -8.2525=T -11.663=T 0.777=T -0.318=T 1.412=T 11.30639=T -1.02441=T 5.406719495=T 13.6400594194=T 0.211024639=T pbc="F F F"
C        1.11814633      -0.24665190      -0.20370103
O        2.43935717      -0.00178195       0.27489768
C        2.89124151       1.32655069       0.00160214
C        2.34167720       2.37068990       0.98274054
C        4.36346718       1.30026009       0.04503609
N        5.52815172       1.32621541       0.07741206
H        0.91744503      -1.30806288      -0.01588394
H        1.04226658      -0.05137865      -1.28922680
H        0.35968386       0.35657708       0.32494298
H        2.61021562       1.60759563      -1.03442250
H        2.62544360       2.10624849       2.00901938
H        1.24767577       2.41798036       0.91119763
H        2.74443843       3.36447773       0.74671579
