15
Properties=species:S:1:pos:R:3 -1526.9511569141691=T 10.380933=T 11.48269=T -9.4251=T -7.1658=T -9.308=T 1.23=T -0.1693=T 1.214=T 8.7104=T -0.5776=T 6.3173098748=T 0.335374001=T pbc="F F F"
O        0.77084163       0.02827478      -0.40497118
C        2.13296658      -0.04405281       0.01294124
C        2.74351818       1.33102964       0.05126094
C        2.07062554       2.44266689      -0.27121415
C        4.19605742       1.37437878       0.42541285
C        4.64808071       1.68674451       1.79607130
O        4.69027295       0.33495020       1.30358807
H        0.39990455      -0.86677663      -0.34790501
H        2.73162455      -0.67551444      -0.67471849
H        2.22806245      -0.49943722       1.01619235
H        1.02831658       2.38996793      -0.58287904
H        2.54971262       3.42268900      -0.23481314
H        4.88857441       1.60945923      -0.39370796
H        3.89330275       1.88159549       2.56477644
H        5.62559906       2.15657466       1.94915576
