18
Properties=species:S:1:pos:R:3 -1818.9875691084128=T 11.226005=T 12.11213=T -8.555=T -6.5927=T -10.142=T 0.9251=T 0.0022=T 3.092=T 9.34628=T -2.82177=T 8.3669968324=T 11.1013468806=T 0.118256464=T pbc="F F F"
C       -1.24224190      -0.80625874      -0.53764678
C       -1.19853641       0.76200103      -0.50301392
N       -0.00649385       1.12696794       0.31485225
C        1.19889654       0.76618951      -0.48534350
C        1.25009662      -0.80187657      -0.51721400
C       -0.00226563      -1.15600096       0.31042997
C       -0.01217800       0.02382188       1.31178998
H       -1.17662417      -1.21504961      -1.55651460
H       -2.16533635      -1.19137148      -0.07911084
H       -2.09340255       1.17371083      -0.01348060
H       -1.11927014       1.22086744      -1.49803827
H        2.08490352       1.18275856       0.01601680
H        1.13152227       1.22318594      -1.48211501
H        2.16692513      -1.18217996      -0.04231738
H        1.20377798      -1.21235778      -1.53646142
H       -0.00391440      -2.16957232       0.73240577
H       -0.91477661       0.07013854       1.93906014
H        0.88051794       0.07320574       1.95285142
