15
Properties=species:S:1:pos:R:3 -1504.2537657092798=T 9.591071=T 10.35175=T -8.7808=T -6.6634=T -10.372=T 0.9984=T 0.0969=T 3.099=T 9.77308=T -2.82259=T 8.4108878764=T 13.2845667602=T 0.118859393=T pbc="F F F"
C        0.69884568       1.34016478      -0.55649655
C       -0.45461534       0.99606795       0.31639688
C       -1.48735523       0.00455566      -0.21787888
C       -0.82764199      -1.36980930       0.03297990
C        0.68357025      -1.07661436      -0.00781710
N        0.86159781       0.31543902       0.49411454
H        0.65084975       1.00409800      -1.59871980
H        1.26759560       2.26003004      -0.39588107
H       -0.74554279       1.67363083       1.12366128
H       -2.44915418       0.10293544       0.30369912
H       -1.67875007       0.16632555      -1.29031972
H       -1.10323760      -1.73169756       1.03548222
H       -1.13271660      -2.13782151      -0.69242808
H        1.25394278      -1.75718458       0.64064283
H        1.08665193      -1.17462996      -1.03029558
