10
Properties=species:S:1:pos:R:3 -1176.02011845358=T 13.008031=T 12.73353=T -8.8447=T -7.0063=T -8.246=T -0.1399=T -1.7102=T -0.557=T 7.81586=T 1.22731=T 3.7479975912=T 8.3989480246=T 0.326479519=T pbc="F F F"
C        0.83649383       0.12862175      -0.00345313
C        2.05281341       0.07631092      -0.00034406
C        3.45683400       0.02523763       0.00311943
C        4.36967544       1.06983357       0.00316428
N        5.69104332       0.72425681       0.00685821
C        5.82817940      -0.57972222       0.00993007
S        4.34143419      -1.49055634       0.00808176
H       -0.23312589       0.17639380      -0.00618421
H        4.08080452       2.11977463       0.00037779
H        6.78695777      -1.09611056       0.01315985
