18
Properties=species:S:1:pos:R:3 -1744.0623020160547=T 11.079512=T 12.13359=T -8.7221=T -6.6376=T -10.232=T 0.9083=T -0.0956=T 2.779=T 9.54123=T -2.44413=T 8.0635039016=T 9.5739633466=T 0.051559198=T pbc="F F F"
C        0.90256342      -0.09788108       0.16634407
C        2.41300052       0.01076958      -0.00021755
C        2.82924864       0.00889447      -1.47995164
O        2.33144776       1.11564529      -2.23932272
C        3.14826672       1.11576787       0.81150467
C        4.15277410       0.01675497       1.22860936
N        3.17585595      -1.01941631       0.78177192
H        0.64690852      -0.14944807       1.23296163
H        0.51752504      -1.00971398      -0.31804164
H        0.38451963       0.77360977      -0.26485485
H        2.52145072      -0.95511334      -1.93440667
H        3.92588438       0.07736052      -1.55417329
H        1.36459237       1.02468370      -2.29759713
H        2.54784055       1.48507702       1.65331647
H        3.52965824       1.96524761       0.23197660
H        5.08768635       0.05161336       0.64217448
H        4.41178494      -0.05055037       2.29623730
H        3.57595215      -1.77108102       0.21065898
