12
Properties=species:S:1:pos:R:3 -1246.5927614805207=T 8.898899=T 9.26531=T -9.3444=T -7.282=T -10.052=T -0.0333=T -1.9161=T -0.856=T 9.90377=T 1.3835=T 3.4213192784=T 5.1042060536=T 0.28945834=T pbc="F F F"
C        1.54761059      -0.06794601      -0.28375712
O        2.93946521       0.17677888      -0.07250063
C        3.33107645       1.48609174      -0.09538117
C        2.56430151       2.57602509      -0.29405967
C        4.80374337       1.58414506       0.14017512
O        5.43204878       2.62750022       0.17415510
H        1.41812844      -1.15428336      -0.23275285
H        1.23097890       0.30057675      -1.27314600
H        0.94167281       0.41825424       0.49819215
H        1.49191533       2.53957157      -0.46799165
H        3.06298261       3.54357376      -0.27658999
H        5.29603602       0.59117206       0.28741669
