15
Properties=species:S:1:pos:R:3 -1636.4704484843237=T 11.091822=T 11.71685=T -8.9742=T -7.0495=T -9.628=T 0.2923=T -1.3201=T -0.451=T 9.22083=T 1.08251=T 3.5383248666=T 5.1022842706=T 0.363246527=T pbc="F F F"
C        0.97437396       0.03068979       0.07588303
C        2.46160791      -0.02536984      -0.02752981
C        3.27901179      -1.10070587      -0.04591172
C        4.73908203      -0.75293118      -0.16186591
C        4.75812057       0.78369405      -0.21763280
C        3.28721832       1.20931228      -0.13252693
O        2.86580702       2.35924496      -0.14909483
H        0.52882602      -0.97149053       0.11074059
H        0.55115896       0.58096463      -0.77754837
H        0.67219546       0.58558455       0.97688709
H        2.93792218      -2.13726707       0.01561124
H        5.30707281      -1.15356146       0.69417509
H        5.18192776      -1.21509792      -1.05972960
H        5.19518909       1.17984678      -1.14527831
H        5.31347612       1.24114683       0.61354123
