14
Properties=species:S:1:pos:R:3 -1446.6811900964624=T 11.136814=T 11.20285=T -8.5975=T -6.7475=T -9.29=T 0.3921=T -1.2442=T -0.549=T 9.18881=T 1.26101=T 3.6989611282=T 4.6012196488=T 0.367337259=T pbc="F F F"
N        0.47179978       0.61278414      -0.01487230
C        1.76857580       0.22951948       0.08794211
C        2.86974281       1.01606294      -0.07868957
C        4.19617223       0.45239888       0.08493184
O        4.43646088      -0.73003687       0.38196373
C        5.39204034       1.38178419      -0.12656165
O        6.59880628       0.68736647       0.06944448
H       -0.27420485      -0.06748267       0.04663559
H        0.22384445       1.55298445      -0.30301310
H        1.92723434      -0.82140434       0.34556545
H        2.77928754       2.07438152      -0.33839673
H        5.30499474       2.23559881       0.57462414
H        5.33545845       1.80185412      -1.15074496
H        6.29284721      -0.22699112       0.29012097
