12
Properties=species:S:1:pos:R:3 -1269.1091821828966=T 9.588096=T 10.65049=T -9.9733=T -7.6695=T -9.927=T 1.4892=T 0.0176=T 1.904=T 9.56064=T -1.51526=T 4.3641584168=T 12.138167407=T 0.426718221=T pbc="F F F"
C        0.99519772      -0.01929363      -0.06814210
C        2.49190976       0.10274196       0.01407404
O        3.26320699      -0.53019325      -1.02428799
C        3.26799843       0.92193700      -0.95172825
C        4.50103418       1.56674266      -0.58851586
C        5.53478934       2.13543912      -0.30193151
H        0.51437484       0.71984007       0.58928532
H        0.67665408      -1.01997044       0.25762747
H        0.64308972       0.13731393      -1.09634735
H        2.93418414      -0.00921247       1.01216498
H        2.70880462       1.40689665      -1.76116491
H        6.45079619       2.62682840      -0.04466385
