15
Properties=species:S:1:pos:R:3 -1497.9079953061023=T 11.526898=T 11.67118=T -8.7997=T -6.9645=T -9.434=T 1.0504=T -0.6451=T -0.013=T 8.82239=T 0.58878=T 4.3169321494=T 5.1267963028=T 0.47312701=T pbc="F F F"
C        1.44080524       0.81862400       0.44551015
C        2.89740063       0.54256515       0.26045571
N        3.71921005       1.52369091       0.10997809
N        5.05399430       1.26363860      -0.05915940
C        5.62694455      -0.07294991      -0.08186094
C        5.86112488       2.38325169      -0.21299002
O        7.07235138       2.34622291      -0.37446553
H        1.08367156       0.40673232       1.40264038
H        0.84785204       0.33536839      -0.34706627
H        1.24849315       1.89799391       0.42739156
H        3.22052400      -0.50847961       0.25958467
H        5.20272577      -0.66509535      -0.90693417
H        5.44204215      -0.59270733       0.87050920
H        6.70495783       0.05175599      -0.23211064
H        5.24993249       3.30756833      -0.16845277
