14
Properties=species:S:1:pos:R:3 -1443.2544799862103=T 10.035165=T 10.61239=T -9.5032=T -7.3494=T -9.962=T 0.6578=T -1.2092=T -0.25=T 9.4624=T 0.84374=T 3.6611082024=T 5.9830932132=T 0.280604499=T pbc="F F F"
C        0.86208897       0.17703391      -0.03954852
C        2.38720892       0.09634440      -0.11392487
C        2.89277377      -0.45908065      -1.42387494
C        3.82759699      -1.40829750      -1.55051338
C        3.05495726       1.45610011       0.10096117
O        2.46601983       2.51265595       0.21783562
H        0.54156008       0.62290700       0.91112021
H        0.42101865      -0.82413154      -0.13016369
H        0.46474325       0.80750390      -0.84688727
H        2.78429277      -0.54508701       0.69640406
H        2.45864505      -0.00491270      -2.32213114
H        4.28106405      -1.88526802      -0.67791331
H        4.16273137      -1.74833469      -2.53126602
H        4.17426905       1.40835683       0.13226210
