20
Properties=species:S:1:pos:R:3 -1933.2754424847783=T 12.39886=T 13.63506=T -8.0007=T -6.0166=T -9.484=T 0.9324=T 0.0372=T 3.121=T 8.69787=T -2.84068=T 7.5549257282=T 10.041502154=T 0.092348118=T pbc="F F F"
C        0.85590757       0.06940315       0.61453501
C        2.15967829      -0.17715565      -0.13198533
C        3.25588173       0.90113642       0.08606287
N        3.88611277       0.02275473       1.08974273
C        5.32825034       0.01650923       1.21674909
C        3.14649570      -1.16507904       0.56482258
C        3.89478128      -2.08640451      -0.39666076
H        0.20674077      -0.81924021       0.58445974
H        0.29589422       0.90717514       0.17179997
H        1.05367949       0.31175972       1.66928075
H        1.96616204      -0.42014737      -1.18749776
H        2.93042748       1.88246643       0.47265711
H        3.87754568       1.06587815      -0.81897975
H        5.63716091      -0.74658746       1.94736507
H        5.65913070       0.99313513       1.60227402
H        5.87163531      -0.17205208       0.26494429
H        2.70195395      -1.76717685       1.37940508
H        4.31750246      -1.53700820      -1.25148881
H        3.20257070      -2.84438064      -0.79382277
H        4.71576861      -2.61910610       0.10616688
