14
Properties=species:S:1:pos:R:3 -1450.4692928534823=T 10.933998=T 11.95011=T -9.1273=T -6.9559=T -9.763=T 0.9296=T -1.1249=T -0.202=T 9.59695=T 0.81895=T 3.6148862216=T 10.7991310056=T 0.575354311=T pbc="F F F"
O        2.77956719       2.39761813      -2.26172604
C        2.21803109       2.11438735      -1.22001778
C        2.89130099       1.43968385      -0.03577169
N        4.32405563       1.22965801      -0.10826208
C        5.09244106       2.47773044       0.07617245
C        6.52534773       2.24815420      -0.06810834
C        7.71623098       2.06748081      -0.21130173
H        1.11995835       2.30779256      -1.08394942
H        2.37315050       0.46788983       0.08878123
H        2.63490786       2.00811804       0.87675147
H        4.56077378       0.84287798      -1.02677954
H        4.88928103       2.84718844       1.09686297
H        4.79442455       3.28287389      -0.62495846
H        8.76820928       1.90833649      -0.33288303
