18
Properties=species:S:1:pos:R:3 -1792.3859120784807=T 12.367724=T 13.43394=T -8.7743=T -6.6463=T -9.517=T 0.9512=T -0.0001=T 1.337=T 8.99158=T -0.76268=T 6.6624249058=T 0.449655513=T pbc="F F F"
C        2.42269159       3.43340730      -0.51518413
C        2.82223733       2.17218051      -0.71755027
C        3.24016560       1.21308587       0.35739622
C        4.69076196       0.75026204       0.20722744
C        5.84362069       1.72961803       0.54775552
C        6.51211968       0.52670721       1.25310139
N        5.18294431      -0.14609962       1.29412148
H        2.13735004       4.08196265      -1.34488013
H        2.36054720       3.85673274       0.49075356
H        2.86687663       1.79308198      -1.74605046
H        2.59515833       0.31592107       0.32375397
H        3.11365171       1.66260530       1.35485463
H        4.84117865       0.32220109      -0.80526453
H        5.52036576       2.50431371       1.25685838
H        6.37883481       2.19632347      -0.28701292
H        7.25106986       0.02865147       0.59877410
H        6.96640359       0.69572013       2.24125507
H        5.19467226      -1.14182498       1.05972066
