16
Properties=species:S:1:pos:R:3 -1638.0652681937665=T 12.481931=T 12.99521=T -8.5597=T -6.6027=T -8.993=T 1.2434=T -0.398=T 0.079=T 8.51948=T 0.56696=T 4.2945278792=T 5.0901460412=T 0.433792446=T pbc="F F F"
C        2.63418069      -1.14050402       0.95428375
C        3.10614848      -0.30648370      -0.24676701
C        3.15210707       1.16511885       0.04205335
C        4.26932315       1.90744089      -0.01810220
N        4.34418390       3.27697639       0.25322248
C        5.49100511       4.03316164       0.19113546
O        5.54273910       5.23053349       0.43571379
H        2.57531787      -2.20741368       0.69532794
H        1.63585705      -0.82187849       1.29000162
H        3.32280851      -1.03005298       1.80426993
H        2.42432631      -0.49076940      -1.09620052
H        4.10177375      -0.64919357      -0.57233673
H        2.20825561       1.64255489       0.33157847
H        5.22877708       1.46419094      -0.29871313
H        3.49770827       3.77893292       0.52472989
H        6.37613804       3.42684584      -0.11027711
