17
Properties=species:S:1:pos:R:3 -1755.502912216797=T 11.461092=T 12.57372=T -7.9592=T -5.9062=T -8.588=T 0.9436=T 0.0578=T 1.416=T 8.08881=T -0.79641=T 5.7242848368=T 0.259243928=T pbc="F F F"
C        0.92914566      -0.06584852       0.04809385
C        2.42797723       0.02655251      -0.18342464
C        3.05909820      -1.24832665      -0.80933426
C        3.55442478      -0.73983703      -2.13804795
C        3.31286538       0.57813884      -2.23414009
C        3.60189212       1.54853471      -3.32521443
O        2.69026660       1.12356681      -1.13094503
H        0.52751821       0.89121563       0.40793483
H        0.71070997      -0.83860855       0.80004136
H        0.41373154      -0.33402335      -0.88592184
H        2.93948188       0.31118952       0.74960334
H        2.30737657      -2.05054228      -0.91264766
H        3.87103565      -1.65206427      -0.18163184
H        4.03352597      -1.34463385      -2.90313335
H        4.23981919       2.36674110      -2.95780907
H        2.67077702       2.00320432      -3.69624392
H        4.10927403       1.04930105      -4.15868931
