16
Properties=species:S:1:pos:R:3 -1597.4361719930869=T 10.085465=T 10.98692=T -9.1416=T -7.1181=T -10.67=T 0.7701=T -0.2749=T 0.497=T 9.71011=T 0.16229=T 4.3783672124=T 6.7951891146=T 0.131129052=T pbc="F F F"
C        0.85215648      -0.16861783       0.05351031
C        2.36356510       0.03921942      -0.04347359
C        3.11153139      -0.69548340       1.07253001
O        2.87628141      -0.49156431      -1.29263698
C        2.68028031       1.55728239       0.09123843
N        3.49633353       2.05046661      -0.88379136
O        2.22834386       2.23026691       1.01608693
H        0.33335399       0.31956950      -0.78684440
H        0.46953798       0.27745934       0.97965883
H        0.61976463      -1.24249568       0.04122819
H        2.84265992      -0.27051737       2.04740150
H        4.19693443      -0.59824104       0.93275800
H        2.85214980      -1.76268808       1.05205849
H        2.17641476      -0.38521573      -1.96112913
H        3.91637536       1.40246900      -1.54366298
H        3.84061705       3.00038026      -0.79277224
