21
Properties=species:S:1:pos:R:3 -2070.510619385916=T 13.886043=T 15.59675=T -9.0206=T -6.8921=T -8.953=T 1.029=T 0.1273=T 1.483=T 8.40621=T -0.82922=T 6.2752910194=T 0.417023749=T pbc="F F F"
C        1.12122416       3.38247986      -1.23622785
C        2.36048870       2.48665841      -1.21040067
C        3.19851897       2.66205210       0.06880813
C        4.41300598       1.78147104       0.10357896
C        5.68190486       2.21028924       0.15668936
C        6.89947439       1.33147170       0.15329992
C        7.81683812       1.59401150      -1.05151134
H        0.53727520       3.23587557      -2.15623341
H        1.39950317       4.44656200      -1.18407977
H        0.45857617       3.17213068      -0.38234374
H        2.99731209       2.69985262      -2.08499822
H        2.05832664       1.42914255      -1.30286836
H        2.55406437       2.43929184       0.93987751
H        3.50345429       3.71785862       0.16843970
H        4.22770875       0.69897072       0.06377107
H        5.86816993       3.29299304       0.18884432
H        6.58913376       0.27400860       0.16657613
H        7.47589753       1.50025365       1.08075988
H        7.28605496       1.40456831      -1.99592126
H        8.70645620       0.94829571      -1.02238509
H        8.16166176       2.63921225      -1.06735528
