14
Properties=species:S:1:pos:R:3 -1445.2176015929779=T 9.842916=T 10.44632=T -9.3568=T -7.3156=T -10.29=T 0.8723=T -1.1868=T -0.299=T 9.55711=T 0.91409=T 3.6215442698=T 5.884623532=T 0.179431088=T pbc="F F F"
C        1.03141330      -0.01771488      -0.13671846
N        2.46126185       0.22232858      -0.00719351
C        3.37513217      -0.89404989      -0.07400173
C        3.45048482      -1.59426170      -1.41607334
O        2.86371582      -1.25432176      -2.42393575
C        2.97548028       1.48214966       0.16914880
O        4.16758806       1.74751641       0.28776860
H        0.50209283       0.93742620      -0.02708161
H        0.67896394      -0.70230882       0.65147448
H        0.79305049      -0.44249624      -1.12168265
H        3.14423373      -1.65581173       0.69543720
H        4.38315109      -0.50327636       0.15753146
H        4.11992551      -2.49421548      -1.40574677
H        2.17462611       2.25426601       0.20078328
