16
Properties=species:S:1:pos:R:3 -1643.8257927772079=T 12.604667=T 14.45347=T -8.751=T -6.6866=T -9.039=T 0.8015=T -0.0583=T 2.266=T 8.67186=T -1.77409=T 4.1102970818=T 9.708413765=T 0.328318648=T pbc="F F F"
C        0.95292610      -0.03395251      -0.00842787
C        2.40683043       0.00735085       0.01215561
C        3.62422904       0.04618588       0.03203747
C        5.05960219       0.06317734       0.05994296
N        5.84352361      -0.64924565      -0.99906951
C        5.83402971       0.82629400      -0.97583847
C        7.13754143       1.50447281      -0.64096806
H        0.52312575       0.97341830      -0.11959854
H        0.55696986      -0.46752523       0.92243915
H        0.58555412      -0.64900622      -0.84414956
H        5.51222916      -0.03040571       1.05249032
H        5.17913743      -0.98328074      -1.70636867
H        5.21494673       1.32936806      -1.72625041
H        7.68319126       0.93319748       0.12231535
H        6.96514089       2.52315916      -0.26365730
H        7.77829229       1.57321218      -1.53273250
