18
Properties=species:S:1:pos:R:3 -1735.473733995367=T 11.212167=T 12.41138=T -9.1869=T -6.8948=T -10.543=T 0.9021=T -0.0379=T 2.98=T 9.92854=T -2.60858=T 8.4105531142=T 11.5353846708=T 0.131846776=T pbc="F F F"
C        0.51190309       0.69900761       0.47327668
O        1.66412182       0.63782015      -0.36922733
C        2.81535141       1.25358443       0.19382915
C        3.47634677       0.46017775       1.30205434
N        3.97491705      -0.82178385       0.78252981
C        3.66409022       1.97893587      -0.80478746
C        2.85214852       2.76435280       0.21208685
H        0.62634106       0.08933933       1.38695726
H       -0.32368065       0.29891526      -0.11480262
H        0.28350402       1.73822896       0.76864313
H        2.76101632       0.36119450       2.14567460
H        4.32853879       1.04453809       1.68493498
H        3.21231474      -1.29152724       0.28621033
H        4.24148630      -1.43379562       1.55645806
H        3.30426282       1.98325968      -1.83344809
H        4.74591361       1.91640797      -0.68705916
H        3.37125084       3.26733684       1.02963399
H        1.96796327       3.28268747      -0.16081453
