16
Properties=species:S:1:pos:R:3 -1627.080197746648=T 11.92846=T 13.07824=T -9.1305=T -7.1084=T -9.719=T 0.9852=T 0.0165=T 2.45=T 9.30545=T -1.98921=T 4.3877777498=T 10.8447206578=T 0.312616843=T pbc="F F F"
C        1.29839127       0.28544551       0.07887080
C        2.79509273       0.02230936      -0.14017864
C        3.03191551      -0.76883179      -1.35065478
C        3.21542370      -1.44125765      -2.34388232
N        3.51175012       1.31249622      -0.23358869
C        3.97186848       1.84683482       1.05602713
C        4.94140542       1.25467437       0.08852805
H        1.15150536       0.85438161       1.00727424
H        0.74853870      -0.66130299       0.15339104
H        0.89529265       0.86734385      -0.75979903
H        3.17876729      -0.57138957       0.72145130
H        3.37953111      -2.02832044      -3.22432090
H        3.75489739       1.26499387       1.95882077
H        3.89111917       2.92972498       1.17051850
H        5.58332662       1.89674639      -0.51766785
H        5.36760446       0.27920147       0.34473039
