18
Properties=species:S:1:pos:R:3 -1793.9431574015834=T 13.473938=T 13.71504=T -8.4756=T -6.4438=T -8.563=T 0.6675=T -0.9182=T 0.328=T 8.01331=T 0.19514=T 5.2630569168=T 0.738564472=T pbc="F F F"
C        0.95299709       0.08112718       0.14870456
N        2.40628441      -0.05941307       0.17392971
C        3.08849977       1.21596715      -0.07334792
C        4.59113778       1.06322534      -0.19062935
C        5.20682235       1.34950549      -1.35845271
C        5.38237837       0.64405187       0.96981767
C        4.90040088       0.28731107       2.17385294
H        0.48603829      -0.90883887       0.24253299
H        0.55887285       0.56931114      -0.76883332
H        0.62722299       0.68587316       1.00981403
H        2.69919766      -0.72940475      -0.54145230
H        2.85818226       1.88508535       0.77613743
H        2.71296801       1.72688286      -0.98685809
H        4.64436776       1.68014022      -2.23308453
H        6.29061814       1.26686788      -1.46248425
H        6.46648855       0.64034722       0.81102581
H        3.82835597       0.23351676       2.36650084
H        5.57652686       0.01161400       2.98394648
