12
Properties=species:S:1:pos:R:3 -1260.9733045321502=T 8.375068=T 8.98016=T -9.8454=T -7.6963=T -11.212=T 0.1585=T -1.8285=T -0.945=T 10.57872=T 1.33328=T 3.567139213=T 12.115168004=T 0.173565793=T pbc="F F F"
C        0.89207823      -0.00936427      -0.13712114
C        2.40243360       0.13004358      -0.27459347
C        2.99628901      -0.67585999      -1.42582195
O        4.18579595      -0.88602294      -1.56362545
C        2.86675979       1.58363195      -0.44050877
O        2.11902660       2.53799899      -0.40732798
H        0.51982033       0.61161547       0.68685321
H        0.61138513      -1.05327146       0.05696458
H        0.38211221       0.32494745      -1.05133968
H        2.93918727      -0.21915596       0.62753229
H        2.24739017      -1.04185290      -2.17452605
H        3.96675171       1.69482008      -0.59380560
