15
Properties=species:S:1:pos:R:3 -1580.2175932103094=T 10.620511=T 11.68756=T -8.7762=T -6.67=T -8.523=T 1.4167=T -0.1286=T 1.214=T 7.983=T -0.53469=T 5.385021945=T 0.221175443=T pbc="F F F"
C        1.11049573       0.19664517      -0.09460112
C        2.56817041      -0.07874144       0.00037448
C        3.33062323      -1.13619409      -0.33489205
C        4.72936478      -0.65742182       0.08498407
C        4.76355100       0.78465210      -0.50065247
C        3.64378263       0.87607204       0.57573097
O        4.45497885      -0.04060991       1.41158763
H        0.57027506      -0.64421829      -0.54933360
H        0.91290096       1.09691110      -0.69931589
H        0.67757397       0.38580977       0.90131774
H        3.06114160      -2.09505589      -0.77121123
H        5.58214554      -1.34564817       0.07231294
H        4.49358509       0.92749670      -1.55622633
H        5.66785056       1.33950467      -0.21560130
H        3.34311060       1.80447805       1.07708617
