16
Properties=species:S:1:pos:R:3 -1677.6120889824638=T 11.599904=T 12.58688=T -10.1156=T -7.9811=T -9.883=T 1.3647=T -0.2883=T 0.97=T 9.31753=T -0.37815=T 5.3488924246=T 6.6524192356=T 0.428584835=T pbc="F F F"
C        0.96699035       0.01234128       0.14456573
C        2.50928779      -0.03747535      -0.00550215
C        3.13900900      -0.75591153       1.21554881
C        2.87166187      -0.78705837      -1.27896531
C        3.55169608      -0.30863967      -2.32328362
C        3.02059282       1.34144307      -0.05370809
N        3.42008014       2.43716695      -0.07842622
H        0.50927262       0.53704903      -0.70330951
H        0.68505441       0.52563059       1.07362926
H        0.57181363      -1.01265529       0.17758994
H        2.86531786      -0.24515254       2.14845162
H        4.23274614      -0.78041528       1.13259144
H        2.76733111      -1.78921118       1.26063048
H        2.51169224      -1.82177441      -1.28498982
H        3.92313230       0.71811609      -2.34571035
H        3.75681164      -0.93687338      -3.19039221
