9
Properties=species:S:1:pos:R:3 -943.5974617735699=T 7.119777=T 7.66562=T -10.5925=T -8.3286=T -11.47=T 0.7103=T -0.5679=T 1.255=T 11.13523=T -0.90528=T 5.3494255644=T 11.4896214382=T 0.378730892=T pbc="F F F"
N        0.96097476       0.01495360      -0.10585560
C        2.12775651       0.00778543      -0.08260712
C        3.56900103      -0.03776494      -0.01591367
C        4.36824326      -0.77040844      -1.04977334
N        4.30818259       0.69644332      -1.07293571
H        3.96204876      -0.03110729       1.00407592
H        3.83933291      -1.25948995      -1.86917816
H        5.27420752      -1.27179431      -0.70139979
H        5.15613266       1.09683258      -0.65869252
