16
Properties=species:S:1:pos:R:3 -1577.7168316802208=T 10.574179=T 11.4644=T -8.5289=T -6.5006=T -9.116=T 0.9508=T 0.0446=T 1.331=T 8.53941=T -0.77517=T 6.216410068=T 0.346345774=T pbc="F F F"
C        1.49561553       0.44393955      -0.77960804
C        2.78938820      -0.11986318      -0.22590479
O        3.86388737       0.73574718      -0.64771959
C        5.13156092       0.38864771      -0.25573299
C        6.12224609       1.38470890      -0.78102058
C        5.45434032      -0.68470762       0.49128435
H        0.65216414      -0.19101035      -0.47467197
H        1.52214608       0.47945047      -1.87717799
H        1.31724494       1.46005057      -0.40242107
H        2.97260198      -1.14328878      -0.59978629
H        2.76968627      -0.15994653       0.87816390
H        5.89741880       2.39031160      -0.39491520
H        6.06839488       1.43755845      -1.87868015
H        7.14175973       1.11109121      -0.48733246
H        4.72388470      -1.39727668       0.86671310
H        6.49933005      -0.85809250       0.73891977
