17
Properties=species:S:1:pos:R:3 -1661.2237088655675=T 13.287776=T 13.81995=T -8.1381=T -6.2295=T -8.969=T 1.6324=T -0.0635=T 0.798=T 8.40778=T -0.1811=T 4.9089900966=T 5.3877372384=T 0.340201819=T pbc="F F F"
C        4.02513454      -1.92883158      -1.20554285
C        4.11361503      -0.44903081      -1.02023481
N        5.24127501       0.12450240      -0.78585268
N        5.27632613       1.49411002      -0.71309279
C        6.34442226       2.01898907       0.14032979
C        6.52832324       3.48891278      -0.09920665
C        6.46237217       4.42100456       0.85755743
H        3.33403943      -2.38110734      -0.47626314
H        5.01597072      -2.38384435      -1.08602858
H        3.63932731      -2.18232273      -2.20638591
H        3.18178309       0.14259187      -1.10726222
H        4.36475941       1.93333627      -0.52181535
H        7.25571957       1.46816767      -0.14272801
H        6.16627923       1.82620616       1.21666565
H        6.72653602       3.77884113      -1.13632918
H        6.25508105       4.15331854       1.89709733
H        6.62307580       5.47775633       0.63976197
