14
Properties=species:S:1:pos:R:3 -1517.5585205459622=T 10.41842=T 10.84617=T -9.2494=T -7.2556=T -9.534=T 0.7024=T -0.23=T 0.564=T 9.54758=T 0.08288=T 4.3712008216=T 11.795718075=T 0.385570435=T pbc="F F F"
O        0.85929027       0.10016294       0.05580296
C        2.08921363       0.04065449       0.03004440
C        2.82078613      -1.29479498       0.04636783
C        4.31741572      -1.21875441       0.02637826
C        4.98659234      -0.06234019      -0.01643231
C        4.31500760       1.27294212      -0.04740277
N        2.86114173       1.17163750      -0.01587996
H        2.44160360      -1.87426185      -0.81261097
H        2.46172600      -1.84263748       0.93388463
H        4.86859075      -2.16272534       0.04748554
H        6.07823150      -0.04778980      -0.03089705
H        4.66307499       1.87887675       0.81071283
H        4.63006887       1.82170615      -0.95545576
H        2.32035687       2.03455410      -0.02772761
