16
Properties=species:S:1:pos:R:3 -1619.0496085455702=T 11.516662=T 13.14819=T -9.3342=T -7.0245=T -9.123=T 0.9116=T 0.0294=T 2.45=T 8.74304=T -2.05537=T 4.1234891922=T 11.7102049308=T 0.698952099=T pbc="F F F"
C        0.97202798      -0.08475956       0.00245474
C        2.51003801      -0.02751911       0.00093731
C        3.03050476       1.33686098       0.00169468
C        3.43669978       2.48410491       0.00211390
C        3.89103504       3.87189703      -0.00074740
C        2.74293962       4.88045790      -0.18364812
H        0.62389783      -1.12726597       0.00190824
H        0.56380449       0.41806357      -0.88484377
H        0.56566791       0.41656748       0.89145413
H        2.89971194      -0.56508690      -0.88055696
H        2.90142914      -0.56651932       0.88078763
H        4.63590974       4.00922848      -0.80332288
H        4.42198388       4.08267480       0.94346154
H        2.22478790       4.71032339      -1.13726399
H        3.12767150       5.90997824      -0.17612945
H        2.00513048       4.77960409       0.62400041
