14
Properties=species:S:1:pos:R:3 -1394.3768458341312=T 10.395326=T 10.69687=T -9.1343=T -7.1029=T -9.795=T 1.2704=T -0.3303=T 0.755=T 9.23769=T -0.29491=T 5.027322335=T 6.5298590746=T 0.408632601=T pbc="F F F"
N        2.82131076      -1.28637493      -1.12214601
C        2.44957708      -0.39879102      -0.12005068
N        1.47462484      -0.52477682       0.71194256
C        3.27194859       0.88438476      -0.10552408
C        4.75063536       0.63980796       0.01392684
C        5.66064536       0.97273006      -0.91029435
H        3.78274094      -1.21648319      -1.45082381
H        2.47379200      -2.23838811      -1.04726754
H        0.98880104      -1.42469985       0.57986349
H        2.90221462       1.47195925       0.74611499
H        3.06146520       1.44892978      -1.02874090
H        5.07935034       0.14367562       0.93446076
H        5.37226150       1.47668838      -1.83691878
H        6.72284236       0.76993812      -0.76488251
