12
Properties=species:S:1:pos:R:3 -1351.3479464649315=T 10.265532=T 10.86038=T -10.1152=T -7.92=T -10.03=T -0.0844=T -1.8346=T -0.422=T 10.35447=T 1.06965=T 3.650457805=T 6.5135797128=T 0.344791658=T pbc="F F F"
C        0.86519807       0.21965551       0.15855027
C        2.19626708       0.22691723      -0.03485539
C        3.02267832      -1.02226921      -0.21651094
C        3.46985172      -1.29096691      -1.64838664
O        3.14064288      -0.64306296      -2.61842185
C        2.90844389       1.46968987      -0.08511360
N        3.52908381       2.46042746      -0.10057937
H        0.30382907       1.14614111       0.27018095
H        0.31457281      -0.72029924       0.20558155
H        2.45685475      -1.90976996       0.11424582
H        3.93116893      -0.99565543       0.40967675
H        4.14546867      -2.17986747      -1.74269756
