18
Properties=species:S:1:pos:R:3 -1773.2281033446739=T 11.419302=T 12.43159=T -8.958=T -7.0627=T -10.031=T 0.7628=T -0.1765=T 0.479=T 9.70435=T 0.14662=T 4.3524169426=T 5.8237588046=T 0.191609255=T pbc="F F F"
C        1.59228212      -0.16024768       1.03458790
C        2.16762576       0.28654257      -0.31081749
N        2.94005083       1.52864623      -0.21896967
C        2.24766637       2.81497073      -0.24364611
C        1.74673866       3.22256690      -1.63121057
C        4.30015798       1.46259226      -0.07870885
O        4.96699390       0.43158151      -0.04416991
H        1.02350209      -1.09295141       0.91100382
H        0.91230883       0.59196148       1.46020869
H        2.40163823      -0.34488620       1.75364272
H        1.36520275       0.42934487      -1.05064845
H        2.85455482      -0.47790138      -0.69886448
H        2.95162517       3.57125140       0.13644363
H        1.40841696       2.78267991       0.47121610
H        2.58334801       3.30593900      -2.33873467
H        1.23864176       4.19609830      -1.57901962
H        1.02902447       2.49526272      -2.03564828
H        4.75608131       2.47755879       0.00272524
