13
Properties=species:S:1:pos:R:3 -1461.9673030339316=T 11.412243=T 10.92942=T -8.1507=T -6.3282=T -8.442=T 0.7986=T -0.6773=T 0.301=T 7.95248=T 0.27579=T 4.329715106=T 6.4769790456=T 0.443157232=T pbc="F F F"
N        1.05668214      -0.02276639       0.26048833
C        2.42623783       0.04613693       0.05533611
C        3.09506689       1.28890181      -0.02097621
C        4.47553810       1.28807552      -0.17338280
C        5.16154270       0.06795980      -0.23862864
C        4.40815982      -1.10223739      -0.15027736
N        3.07282328      -1.13357911      -0.01252793
H        0.50141126       0.76288146      -0.06273214
H        0.66000845      -0.93643202       0.05428949
H        2.53562903       2.22401741       0.04465457
H        5.01623256       2.23404311      -0.23911249
H        6.24406920       0.02557827      -0.35589137
H        4.89917876      -2.07951941      -0.19825956
