15
Properties=species:S:1:pos:R:3 -1570.6148188513266=T 11.238236=T 12.53668=T -9.6157=T -7.4563=T -9.868=T 0.9741=T 0.0522=T 2.097=T 9.46347=T -1.71666=T 4.3493172926=T 10.218740141=T 0.385558314=T pbc="F F F"
C        0.98618570       0.08164774       0.10671024
C        2.48385989      -0.05938097      -0.00548893
O        3.21870186       0.98327411       0.71024456
C        4.14171050      -0.00078452       1.24736196
C        3.20758604      -1.16494669       0.82526891
C        3.76496931      -2.30928204       0.13918201
C        4.24052026      -3.25643458      -0.45457355
H        0.48907264      -0.75444282      -0.40688664
H        0.65562608       1.01739992      -0.36605673
H        0.67052743       0.09365735       1.15945723
H        2.80401656      -0.09057639      -1.06348512
H        5.10311629      -0.00309089       0.70631873
H        4.31204550       0.13565691       2.32523011
H        2.57357069      -1.48690025       1.66640595
H        4.65772124      -4.09445688      -0.97437874
