17
Properties=species:S:1:pos:R:3 -1617.4127561637686=T 10.693686=T 11.63441=T -8.7516=T -6.6266=T -10.288=T 0.8272=T -0.171=T 2.904=T 9.58106=T -2.63618=T 8.1287329362=T 10.5775184292=T 0.072875786=T pbc="F F F"
N        1.99450958      -0.19284637      -1.33477151
C        2.29790674       0.14256969       0.06508439
C        3.46402733       1.12839806       0.12259712
N        3.24317794       2.41445262      -0.59363455
C        2.88360617       3.08828135       0.68493012
C        3.56198763       1.92342211       1.45782452
O        4.87518456       2.17866998       1.93509989
H        1.15113563      -0.76717266      -1.38799216
H        2.75208029      -0.75528461      -1.73203213
H        2.54259338      -0.72927292       0.70701485
H        1.39775965       0.61533306       0.49326383
H        4.40004870       0.61731508      -0.17363534
H        2.50281370       2.35262996      -1.29859169
H        3.34093681       4.08086727       0.82645908
H        1.80123391       3.16433418       0.89305310
H        3.01047339       1.50529732       2.31125775
H        5.38151458       2.56203589       1.19508272
