19
Properties=species:S:1:pos:R:3 -1872.4270174322248=T 11.570381=T 12.8939=T -9.8216=T -7.5539=T -11.025=T 0.8957=T -0.0159=T 2.777=T 10.67568=T -2.43962=T 8.7357063992=T 10.5399134754=T 0.19373158=T pbc="F F F"
C        0.78242844       0.37279450      -0.46221189
C        2.21210337       0.09269225      -0.03339620
C        2.47925648       0.14452770       1.46753319
C        1.69048177      -0.87603921       2.29069878
O        2.00223055      -2.23514920       1.96285803
C        3.01811222      -0.89457163      -0.86765261
C        3.31153525       0.58834865      -0.94413165
H        0.68895723       0.34737456      -1.55713070
H        0.45912903       1.36925424      -0.12134430
H        0.07453566      -0.36543509      -0.05452373
H        2.23162842       1.15428295       1.84247889
H        3.55517924      -0.01022542       1.65127507
H        0.60338479      -0.69188067       2.18936283
H        1.93809187      -0.76374131       3.35672359
H        1.94199789      -2.31106757       0.99393073
H        2.53078626      -1.36076088      -1.72595635
H        3.75178355      -1.52430748      -0.36157483
H        4.23444012       0.94788095      -0.48610532
H        3.01928785       1.11832264      -1.85185352
