12
Properties=species:S:1:pos:R:3 -1331.7856481907959=T 13.295895=T 12.85338=T -8.882=T -7.0524=T -8.691=T -0.4051=T -1.915=T -0.864=T 8.00435=T 1.41491=T 4.103006705=T 10.100643476=T 0.671637758=T pbc="F F F"
C        2.79404713      -1.22667151       0.40636922
C        2.29415103      -0.00281488       0.15921101
C        3.03861100       1.24366786       0.12955941
C        2.53983611       2.51610008      -0.11417519
C        3.56381830       3.49333064      -0.06168452
N        4.79731631       3.07194308       0.20017254
S        4.75434889       1.40397151       0.40067097
H        2.14993186      -2.10499023       0.40619885
H        3.85321678      -1.38987355       0.61557635
H        1.22365919       0.10192867      -0.04347770
H        1.49092321       2.72672898      -0.31859488
H        3.41256021       4.56296935      -0.22067607
