15
Properties=species:S:1:pos:R:3 -1522.3821212701469=T 11.619932=T 11.99558=T -8.4162=T -6.4264=T -9.03=T 0.5847=T -0.4061=T 0.427=T 8.50381=T 0.19604=T 4.7203825934=T 5.3437842014=T 0.301019909=T pbc="F F F"
C        1.35771696      -0.09287801      -1.47114117
N        2.51684188      -0.44300328      -0.66224651
C        3.46804757       0.52337937      -0.37894667
O        3.48997524       1.63382759      -0.90413115
N        4.43313406       0.10140551       0.54308668
C        5.47869560       0.92397342       0.95234000
C        6.45967849       0.56134373       1.79418648
H        0.96981172      -0.99420668      -1.96301655
H        1.67908000       0.62428018      -2.23462324
H        0.55184370       0.37381112      -0.88031156
H        2.38890234      -1.18905747       0.01602556
H        4.43637178      -0.86690405       0.85362186
H        5.41693609       1.91911269       0.51031786
H        6.51961393      -0.43677763       2.23224264
H        7.23397063       1.27660352       2.06051577
