19
Properties=species:S:1:pos:R:3 -1868.2121367381762=T 12.440243=T 13.62103=T -9.4565=T -7.4027=T -9.694=T 1.5099=T -0.0957=T 1.238=T 9.13639=T -0.67126=T 6.7035014676=T 0.419027871=T pbc="F F F"
C        0.84032270       1.48645736      -0.32055217
C        2.21375976       1.63731587       0.30590799
O        3.19288120       1.21923011      -0.65112772
C        4.54571085       1.31746166      -0.16722921
C        5.41336894       0.53150986      -1.14561033
C        4.97889832       2.75813664      -0.06721575
C        5.39453692       3.35749665       1.05348631
H        0.06277836       1.78297500       0.39764691
H        0.65870911       0.44457786      -0.61905986
H        0.74849356       2.12222878      -1.21213052
H        2.29978808       1.01199149       1.21837558
H        2.39260149       2.68609931       0.60817117
H        4.60509083       0.85184650       0.83899907
H        5.35162793       0.97430306      -2.15004148
H        5.06736497      -0.50921350      -1.20371960
H        6.46259641       0.54310099      -0.82194099
H        4.92897266       3.32106110      -1.00694597
H        5.44556940       2.81736596       2.00305480
H        5.70627851       4.40336530       1.06227177
