15
Properties=species:S:1:pos:R:3 -1502.6801203897892=T 12.660406=T 13.32422=T -8.2901=T -6.3814=T -8.938=T 1.4194=T -0.223=T 0.651=T 8.40398=T -0.04606=T 4.3597941096=T 10.7769499102=T 0.657545873=T pbc="F F F"
C        1.25583245      -0.33747336      -0.34637923
N        2.70236209      -0.26200310      -0.51119555
N        3.21479025       0.99814003      -0.40544509
C        4.43786608       1.14413061      -0.03737868
C        5.05774079       2.51918037      -0.02344976
C        5.67231253       2.85027412       1.26033466
C        6.18516938       3.10233786       2.33134055
H        0.92903952      -1.35434430      -0.60077974
H        0.78771730       0.36641028      -1.04572928
H        0.91541362      -0.09442176       0.67635502
H        3.21631391      -0.97612861       0.02162648
H        5.07335647       0.29268063       0.26351148
H        4.27520673       3.25148927      -0.27552441
H        5.82897898       2.59174672      -0.81271468
H        6.63150988       3.33256124       3.27699823
