13
Properties=species:S:1:pos:R:3 -1359.4256855246374=T 9.502764=T 10.14011=T -9.6834=T -7.6612=T -10.533=T 0.7914=T -0.0847=T 0.959=T 9.8178=T -0.40574=T 5.187078296=T 6.970802885=T 0.217251692=T pbc="F F F"
N        1.22058045       0.16542853       0.27051192
C        2.35958193      -0.04585160      -0.24525133
O        2.57968468      -1.17448264      -1.00747351
C        3.98972090      -1.31532068      -1.26573602
C        4.58674386       0.02988046      -0.90216127
C        3.97039860       1.23104796      -1.50773224
N        3.54417055       0.77052199      -0.14615847
H        1.24624302       1.05711207       0.77645966
H        4.39618790      -2.11386492      -0.62446692
H        4.11850144      -1.59681770      -2.32090619
H        5.59803133       0.06472346      -0.49372140
H        4.50833806       2.17958543      -1.49878617
H        3.25948728       1.09106765      -2.32602807
