12
Properties=species:S:1:pos:R:3 -1273.8382646874313=T 9.640958=T 9.93821=T -8.5752=T -6.5066=T -9.434=T 1.4067=T -0.308=T 0.466=T 9.04539=T 0.13847=T 5.5055735328=T 12.4289269756=T 0.304270208=T pbc="F F F"
O        0.98911317       0.23096200       0.32006471
N        2.33391129       0.03319946      -0.08822470
C        2.95365907       1.14127360      -0.24445280
C        4.39929232       1.27760643      -0.67435321
C        4.55554909       2.77701756      -0.68363152
C        3.39124976       3.32282747      -0.31985358
O        2.38821329       2.39594073      -0.04197464
H        0.67862414      -0.68901089       0.38789087
H        4.56981199       0.81825810      -1.66100206
H        5.07779601       0.77634678       0.03419188
H        5.46014609       3.31841656      -0.94185517
H        3.08370379       4.35810219      -0.20126979
