18
Properties=species:S:1:pos:R:3 -1740.4603089065445=T 11.162521=T 12.5758=T -9.3381=T -7.0317=T -10.648=T 0.9545=T 0.0052=T 2.718=T 9.99407=T -2.40212=T 8.6501064648=T 11.034630014=T 0.23449363=T pbc="F F F"
C        1.20109601       0.15356206       0.19490739
C        2.67742053      -0.07626268      -0.14972069
C        2.85066066      -0.94524309      -1.40891140
N        2.30704587      -2.29720339      -1.19690944
C        3.39468702       1.24392953      -0.33006043
C        4.09641982       1.92001045       0.77332643
O        4.83919625       1.23323897      -0.25473972
H        1.08857136       0.67283363       1.15739580
H        0.67504142      -0.80829666       0.24551786
H        0.71002417       0.76517634      -0.57915620
H        3.16932919      -0.60073776       0.69057697
H        3.91918561      -0.93139529      -1.69715733
H        2.28620537      -0.48369973      -2.23766858
H        2.93052723      -2.82153609      -0.57666408
H        2.29777603      -2.80843931      -2.08188879
H        3.00614053       1.87924902      -1.13985168
H        4.11895344       1.44271397       1.75975147
H        4.19717949       3.01070001       0.77129242
