14
Properties=species:S:1:pos:R:3 -1520.252210078526=T 10.540445=T 11.03245=T -8.4324=T -6.2809=T -7.831=T 0.865=T -0.7432=T 0.758=T 7.57012=T -0.41511=T 4.1273575554=T 5.9791256612=T 0.215999828=T pbc="F F F"
N       -0.08647507       0.02629054      -1.35761628
C        0.02374555      -1.08082507      -0.35146750
C        1.27936275      -0.64853695       0.45627877
C        1.24526409       0.69035867       0.48535786
C       -0.03167736       1.09281620      -0.30421050
C       -1.23987877       0.62441532       0.53700812
C       -1.20579317      -0.71159742       0.50796373
H        0.80608586       0.06016659      -1.86956037
H        0.03432514      -2.08725211      -0.78507766
H        1.96984643      -1.32419700       0.95754122
H        1.90100350       1.37784919       1.01630066
H       -0.07289503       2.11636760      -0.69364647
H       -1.92139935       1.28553530       1.06633616
H       -1.85213457      -1.42903087       1.00725225
