19
Properties=species:S:1:pos:R:3 -1874.459435959567=T 11.665091=T 13.10383=T -9.9188=T -7.6877=T -11.606=T 0.962=T 0.0091=T 2.788=T 11.36238=T -2.5305=T 9.6168005096=T 0.099622012=T pbc="F F F"
C        0.94312119       0.00237242      -0.00280458
C        2.46159510       0.02223814       0.06387677
C        3.17459338       1.08706010       0.94358784
C        4.22063130       0.01085655       1.33877246
C        3.20736404      -1.07814488       0.87955867
C        3.72385261      -2.30060220       0.14322014
O        4.45435493      -3.20557283       0.98365781
H        0.57352386      -0.87562488      -0.55445839
H        0.55396448       0.89886209      -0.50964948
H        0.50660356      -0.02760766       1.00783505
H        2.88396069       0.05486685      -0.95661006
H        2.54684935       1.36968180       1.80288463
H        3.53512159       2.00267369       0.45447033
H        5.09925117       0.04299451       0.67356881
H        4.56446616      -0.00814129       2.38202324
H        2.58515540      -1.40091195       1.73185428
H        4.34355184      -1.97879263      -0.71830501
H        2.88486396      -2.89107822      -0.25770467
H        5.20242538      -2.70974962       1.36119218
