13
Properties=species:S:1:pos:R:3 -1381.2808477465471=T 10.170966=T 10.39389=T -8.3915=T -6.5429=T -9.217=T 0.9593=T -0.6978=T -0.362=T 8.81905=T 0.91722=T 4.0980844608=T 4.7223291736=T 0.274941611=T pbc="F F F"
C        0.95079307       0.03276058      -0.00361293
C        2.44121032       0.04721101       0.01666807
C        3.30529599       1.08982121      -0.10296763
N        4.63357250       0.66482111      -0.16876417
N        4.60326494      -0.71163927       0.15805668
C        3.25806948      -1.17213337       0.10100315
O        2.93160912      -2.35744485       0.10784696
H        0.53693648       1.04830132      -0.04961134
H        0.55558882      -0.46790630       0.89229159
H        0.57806783      -0.53565961      -0.86932726
H        3.10265961       2.15766224      -0.16130291
H        5.28285291       1.18095622       0.43304367
H        5.29821892      -1.27392029      -0.33365390
