19
Properties=species:S:1:pos:R:3 -1877.4444200312264=T 12.546661=T 13.83751=T -9.3511=T -7.2192=T -9.283=T 0.9851=T -0.2247=T 1.246=T 8.72973=T -0.6076=T 6.3363169286=T 0.398479637=T pbc="F F F"
C        2.39358634      -0.90016312      -1.52532000
C        3.07965423      -0.40939163      -0.24097289
C        3.05917175       1.08611945      -0.10835513
C        4.14650875       1.86549975      -0.01535276
C        4.17661888       3.36406680       0.14122215
C        2.81580644       4.05522845       0.16217562
O        4.95611405       3.71050750       1.31273852
H        2.39853711      -1.99802047      -1.58242726
H        2.90404593      -0.50809151      -2.41693864
H        1.34547139      -0.56695128      -1.56694145
H        4.12038890      -0.76938474      -0.20553730
H        2.56321986      -0.85508421       0.62837114
H        2.06449538       1.54889940      -0.11138424
H        5.13944744       1.39899431      -0.01974858
H        4.77055802       3.78536290      -0.68960070
H        2.18529735       3.67305093       0.97965719
H        2.27787442       3.90905525      -0.78593597
H        2.96036160       5.13221601       0.31686201
H        4.56831216       3.21745621       2.05946829
