15
Properties=species:S:1:pos:R:3 -1492.1009836585788=T 10.336317=T 10.71299=T -8.3398=T -6.3694=T -9.112=T 0.8649=T -0.2111=T 0.735=T 8.59359=T -0.13061=T 4.785177677=T 5.4993246384=T 0.181536434=T pbc="F F F"
O        1.05263728      -0.01758285       0.61343158
C        2.41144760       0.04232631       0.16099487
C        2.65699790       1.22288630      -0.78427819
N        4.04659659       1.15887690      -1.23927429
N        4.46158048       0.00073474      -1.86265726
C        3.84766299      -1.09525267      -1.56432056
C        2.70074024      -1.25144804      -0.59494496
H        0.90760840       0.71739085       1.23435921
H        3.10352949       0.13448965       1.01771802
H        2.50452001       2.18242323      -0.26687859
H        1.93652402       1.15546776      -1.62382414
H        4.34602995       1.95851275      -1.79274049
H        4.23824828      -1.99254625      -2.05230423
H        1.78640039      -1.54970012      -1.13777961
H        2.91543637      -2.07011857       0.11085864
