16
Properties=species:S:1:pos:R:3 -1615.2141288474197=T 10.57233=T 11.58035=T -9.0127=T -6.8055=T -10.465=T 1.0113=T -0.6599=T 0.275=T 9.59648=T 0.47175=T 3.7531430102=T 11.5098807506=T 0.130367435=T pbc="F F F"
C        0.77573616       0.23196492      -0.13393966
C        2.15314357       0.18333623       0.49991783
O        2.45326005      -0.66815847       1.32405072
C        3.15562857       1.22833002       0.02596494
C        2.73845261       2.72418283       0.15785530
N        3.56603144       2.80893936       1.38908589
C        4.28990281       1.55653823       1.02174577
H        0.83321921       0.44507814      -1.21119198
H        0.19348604       1.04697665       0.32320291
H        0.25193930      -0.71379997       0.04257415
H        3.46971975       0.93229761      -0.98755502
H        1.67035807       2.94696360       0.31154377
H        3.10575625       3.32645452      -0.69340855
H        4.15438917       3.64259876       1.44996948
H        5.25855868       1.71631643       0.51623112
H        4.41401833       0.84189112       1.84792334
