13
Properties=species:S:1:pos:R:3 -1412.780835821381=T 9.084869=T 10.02352=T -9.1214=T -7.041=T -10.639=T 1.0334=T -0.8421=T 0.175=T 9.80874=T 0.5654=T 3.803828487=T 8.2574799986=T 0.113236571=T pbc="F F F"
O        1.04039445      -0.00551496      -0.04696889
C        2.25147528      -0.02013451      -0.03878569
C        3.23262667      -1.21315590       0.02071831
C        4.51439337      -0.36522435      -0.03793303
C        4.25426242       0.66752168      -1.15756386
C        3.25147379       1.15041942      -0.08403984
O        4.20365049       0.69715363       0.95502998
H        3.08127082      -1.90692811      -0.81830794
H        3.14072466      -1.76298772       0.96665028
H        5.48571646      -0.84626961       0.12019038
H        3.87572210       0.31970338      -2.12985475
H        5.08378311       1.37534786      -1.26982649
H        2.88127640       2.17416918       0.02520154
