15
Properties=species:S:1:pos:R:3 -1547.7233953266448=T 11.646322=T 11.6518=T -7.7178=T -5.7932=T -8.154=T 0.6021=T -0.9974=T 0.047=T 7.75603=T 0.51632=T 3.879087989=T 6.185103603=T 0.434668786=T pbc="F F F"
C        0.93907377       0.02220017       0.14554005
C        2.42587641       0.06560981       0.01325354
C        3.18326838       1.18357513       0.08003838
C        4.62659440       1.08438907      -0.03443086
N        5.26960174      -0.04431524       0.10099514
N        4.48304792      -1.14533553       0.30088287
C        3.16097936      -1.21511557      -0.32570978
H        0.63413775      -0.64779160       0.96669322
H        0.47396269      -0.37997127      -0.77162757
H        0.51836321       1.01847611       0.33520233
H        2.73055210       2.16101731       0.26392337
H        5.24933343       1.97512382      -0.13331799
H        5.04013906      -1.99282745       0.22736532
H        2.64131489      -2.09573636       0.08243450
H        3.21740490      -1.34556840      -1.43330251
