17
Properties=species:S:1:pos:R:3 -1740.7849341148524=T 10.911198=T 12.14193=T -8.9404=T -6.8298=T -10.349=T 0.9482=T 0.0554=T 3.088=T 10.02135=T -2.8036=T 8.1834727552=T 10.9747819718=T 0.160840977=T pbc="F F F"
C        1.43810424      -0.18391631      -0.42185244
C        2.85773544       0.02057331       0.03204029
C        3.68644936      -1.06539901       0.67394862
C        4.09108075      -0.48403562      -0.67542021
C        5.09749753       0.66655339      -0.66498931
C        4.22208097       1.86824335      -0.26637366
O        3.13703243       1.33563682       0.52068523
H        1.17909802       0.51987813      -1.22658210
H        0.74000267      -0.02289334       0.41290862
H        1.29358426      -1.20749121      -0.79432448
H        3.28512910      -2.08073728       0.68530374
H        4.28101385      -0.78572601       1.54550061
H        4.00665256      -1.11485035      -1.56139112
H        5.90475220       0.49375975       0.06365995
H        5.55919571       0.81217957      -1.65201288
H        4.73942735       2.61745369       0.34929950
H        3.81895357       2.36926110      -1.16783038
