16
Properties=species:S:1:pos:R:3 -1679.8357652266175=T 12.09908=T 12.60798=T -8.2619=T -6.2616=T -8.185=T 0.931=T -0.5877=T 0.695=T 7.64559=T -0.14083=T 4.623499933=T 6.9377110216=T 0.573729258=T pbc="F F F"
N        1.92808873      -0.36274022       1.41175904
C        2.42198297      -0.00286800       0.06426718
C        2.98504325       1.38844442       0.04073367
C        4.28694707       1.75137475      -0.09123512
C        4.39749491       3.24676803      -0.06150914
C        2.97569369       3.70135274       0.10242653
C        2.17263523       2.61158729       0.15733873
H        1.43211036      -1.25666704       1.36041030
H        1.23512945       0.32620801       1.71800140
H        1.64269016      -0.07676538      -0.72331703
H        3.21647455      -0.71591829      -0.20453816
H        5.13540205       1.07644363      -0.19328159
H        4.85483563       3.65289600      -0.98209542
H        5.03971971       3.59456043       0.76809083
H        2.67001090       4.74463268       0.15456187
H        1.08640133       2.62426093       0.26105692
