16
Properties=species:S:1:pos:R:3 -1625.3722518023458=T 10.97155=T 11.82952=T -9.0514=T -6.8903=T -9.029=T 1.1463=T 0.0463=T 1.443=T 8.41582=T -0.79834=T 6.2922151084=T 0.393766862=T pbc="F F F"
C        1.01439692       0.17617002      -0.61561329
C        2.37844180       0.07114690       0.01781635
C        2.87286621      -1.09722567       0.45692186
C        3.11717749       1.36512722       0.12327152
C        2.93457135       2.24366845       1.35273743
C        4.26651955       1.58875927       1.07093432
H        1.08717758       0.58897545      -1.63529524
H        0.37148299       0.86532338      -0.04413731
H        0.51565163      -0.80004060      -0.67485472
H        2.29130086      -2.01815955       0.38581106
H        3.86906534      -1.17164876       0.89488932
H        3.16564128       1.92180204      -0.81860784
H        2.34028015       1.82953160       2.16841243
H        2.83717983       3.32058503       1.21052462
H        5.08921793       2.21768282       0.72978367
H        4.56664910       0.76648238       1.72032581
