17
Properties=species:S:1:pos:R:3 -1641.2008489924297=T 11.234531=T 11.98919=T -9.2669=T -6.9905=T -9.473=T 1.0168=T -0.0663=T 1.369=T 8.92414=T -0.79468=T 6.6533119348=T 0.447212984=T pbc="F F F"
C        1.10522122      -0.00633500       0.29120124
C        2.50899927       0.08614610      -0.32804945
C        2.63855485      -0.81746041      -1.57465023
N        2.39484183      -2.22937949      -1.24025890
C        2.84963513       1.50757170      -0.68517363
C        3.88349987       2.20683524      -0.20375841
H        1.05573691       0.55008268       1.23715939
H        0.84018735      -1.05619679       0.47276782
H        0.35228830       0.41949373      -0.39148035
H        3.24909783      -0.26499618       0.41589278
H        3.62718798      -0.62807194      -2.03746163
H        1.87676266      -0.51187026      -2.31266600
H        3.18617353      -2.59896020      -0.70595475
H        2.34602625      -2.78561273      -2.09619749
H        2.17070845       1.98904239      -1.40187090
H        4.58067644       1.76954002       0.51640984
H        4.06664215       3.23920116      -0.50623936
