18
Properties=species:S:1:pos:R:3 -1781.803493877162=T 11.909983=T 13.35048=T -8.8925=T -6.8465=T -10.486=T 1.0246=T 0.1526=T 3.389=T 9.80881=T -3.31292=T 8.709706535=T 11.8763585694=T 0.21491797=T pbc="F F F"
C        0.89915134       0.05888606      -0.00543771
C        0.71418182       0.24804912       1.48124808
C        0.08070945       1.51199705       2.00640727
C       -0.67806461       0.20602121       2.06752741
N        2.10903060       0.73288569      -0.49307630
C        3.33710594      -0.06718890      -0.41803426
C        2.67160748       0.18405040      -1.73034097
H        0.91668675      -1.02852299      -0.24553891
H        0.03811611       0.49384970      -0.54184382
H        1.50823787      -0.18459802       2.09654093
H       -0.23494544       2.25324652       1.27064517
H        0.46103454       1.93256847       2.93760682
H       -0.81408965      -0.27012476       3.03897774
H       -1.51361833       0.06950712       1.37824976
H        3.26128044      -1.08376120      -0.01477903
H        4.24248896       0.47747561      -0.14192201
H        3.08267779       0.91613300      -2.42912907
H        2.15668893      -0.66607409      -2.19220111
