14
Properties=species:S:1:pos:R:3 -1479.4279684409335=T 11.010737=T 12.0815=T -9.4578=T -7.4526=T -9.946=T 0.7592=T -0.2533=T 0.473=T 9.61494=T 0.20641=T 4.3327279658=T 10.9755878808=T 0.610756397=T pbc="F F F"
C        1.28007171      -0.56503677      -0.03263867
C        2.77967110      -0.33215371      -0.00854694
O        3.57861692      -1.22134529       0.28395214
N        3.18047914       0.94010650      -0.34701763
C        4.58418184       1.33705818      -0.27909256
C        4.79138684       2.53118851       0.53336637
C        4.95034653       3.53929123       1.18982461
H        0.69892711       0.30521967      -0.36425014
H        0.95716429      -0.84890267       0.97787942
H        1.06847051      -1.41402988      -0.69513838
H        2.48327602       1.66120729      -0.50380824
H        4.99041188       1.50343457      -1.29180529
H        5.11675476       0.47092842       0.14636610
H        5.10134133       4.41974396       1.78061919
