14
Properties=species:S:1:pos:R:3 -1442.45617700257=T 9.309623=T 10.08067=T -9.1554=T -7.0537=T -10.585=T 0.5755=T -1.2516=T -0.017=T 9.90714=T 0.7423=T 3.7106654066=T 12.1149696264=T 0.090695204=T pbc="F F F"
O        1.01093253       0.01249693      -0.19803193
C        2.41084621       0.04557701      -0.05592948
C        2.99726983       1.13158088       0.86246541
N        4.34512128       0.63590453       1.22566514
C        4.21489729      -0.82508522       1.37418401
C        2.96269851      -1.22174781       0.59728495
O        2.39420770      -2.29900191       0.56721233
H        0.75905018      -0.93346191      -0.12815325
H        2.90925898       0.13204469      -1.04879482
H        2.37294373       1.22158077       1.76728930
H        3.06449753       2.12012125       0.39318218
H        4.99112343       0.84187331       0.46082583
H        5.10494777      -1.37127837       1.03225111
H        4.05468504      -1.10185415       2.43195923
