17
Properties=species:S:1:pos:R:3 -1771.9602664613867=T 14.052877=T 15.06332=T -8.7743=T -6.7616=T -8.522=T 0.7384=T -0.8544=T 0.576=T 8.10386=T 0.00272000000001=T 4.0913768182=T 5.9252041498=T 0.458229563=T pbc="F F F"
C        0.92941070      -0.20844285       0.10001225
C        2.45593172      -0.12555539       0.06184913
C        2.96982459       1.32180250      -0.06051499
C        4.46208063       1.41866284      -0.04369877
C        5.21008272       1.93213360      -1.04366142
C        6.62480571       2.01563668      -1.02929184
C        7.83933468       2.10580356      -1.05369324
H        0.58880874      -1.25028755       0.18265164
H        0.48388167       0.21683854      -0.81223186
H        0.52114749       0.34637251       0.95866503
H        2.84469335      -0.71423794      -0.78493906
H        2.87716891      -0.58261464       0.97308129
H        2.56138982       1.90612068       0.78527843
H        2.57334339       1.78179400      -0.98106334
H        4.97429114       1.03062452       0.84377121
H        4.71053836       2.32100608      -1.93878421
H        8.90734637       2.17783284      -1.06628024
