13
Properties=species:S:1:pos:R:3 -1272.4416589050463=T 7.971212=T 8.71701=T -9.3847=T -7.1693=T -11.383=T 1.0146=T 0.0912=T 3.067=T 10.7642=T -2.83385=T 9.2843692464=T 14.69916023=T 0.117215548=T pbc="F F F"
C        1.00772311      -0.05954496       0.10241507
C        2.50032331       0.13117874      -0.03833965
C        3.22041465       1.15126950       0.87107823
C        4.13882260      -0.02724371       1.23538886
O        3.27074866      -0.97296598       0.54557487
H        0.68268027      -0.96155854      -0.43571958
H        0.47201868       0.80282215      -0.32281141
H        0.72659272      -0.16518990       1.16003085
H        2.77381410       0.25080053      -1.10448046
H        2.59481793       1.49763871       1.70479794
H        3.68671380       2.01242912       0.37694250
H        5.13928416       0.01410828       0.76962720
H        4.24457600      -0.27517395       2.30291557
