15
Properties=species:S:1:pos:R:3 -1611.499542414941=T 11.256532=T 11.48906=T -7.8627=T -5.8701=T -8.033=T 0.8119=T -0.7766=T 0.368=T 7.66225=T 0.1898=T 4.252595814=T 7.3247581178=T 0.262065279=T pbc="F F F"
C        1.06861805       0.11572089      -0.17918180
C        2.53771600      -0.04976546       0.21166868
O        3.28918149       1.14576803      -0.21188994
C        3.75170365       1.13914826      -1.48916340
C        3.94781969       0.01276755      -2.21385275
C        3.75916643      -1.26489615      -1.55190765
C        3.15244540      -1.30745082      -0.34769886
H        0.66251654       1.05235610       0.22825503
H        0.48439809      -0.72449031       0.22328488
H        0.95880016       0.11647745      -1.27229114
H        2.63178540      -0.02576312       1.30835376
H        4.02127577       2.14154747      -1.82646205
H        4.35112314       0.08485659      -3.22183983
H        4.17434525      -2.16783196      -2.00375233
H        3.06096496      -2.22872452       0.22904741
