13
Properties=species:S:1:pos:R:3 -1410.9947967424948=T 9.111165=T 10.0615=T -9.5299=T -7.4126=T -10.522=T 1.1884=T -0.6629=T 0.297=T 9.74738=T 0.44739=T 3.964700322=T 11.7892832016=T 0.190217881=T pbc="F F F"
O        1.05532968       0.02760899       0.10669057
C        2.25730606       0.01076210       0.16979487
C        3.40512744      -1.01506398       0.01931196
C        4.22464550      -0.83006785       1.30554015
C        4.24397683       0.73615596       1.35026415
C        3.43053802       1.01440445       0.07703002
O        3.96948698       0.01926469      -0.88438276
H        3.29163209      -2.00085306      -0.44217528
H        3.73572057      -1.28525466       2.17838157
H        5.22890472      -1.25958279       1.19888895
H        5.25862574       1.14619619       1.26820574
H        3.76528063       1.15261315       2.24776543
H        3.34219573       2.02733680      -0.32767537
