19
Properties=species:S:1:pos:R:3 -1781.0403851596823=T 11.130275=T 12.02868=T -8.4574=T -6.3633=T -9.867=T 0.8923=T -0.0483=T 3.03=T 9.11404=T -2.70404=T 7.7759555704=T 11.975435782=T 0.137692568=T pbc="F F F"
C        0.96548606      -0.08106606      -0.01765969
N        2.41647702       0.09405171       0.02721453
C        2.93616267       1.48345490      -0.03254759
C        2.50441821       2.24378492      -1.30542872
C        2.46646243       2.24831049       1.21564612
C        4.46757255       1.36458113      -0.00721721
H        0.74707457      -1.15783798      -0.04768332
H        0.45216773       0.38983722      -0.88064138
H        0.50761783       0.31177530       0.90176769
H        2.83638908      -0.43135669      -0.74397408
H        2.85080525       1.71906390      -2.20963884
H        2.93004972       3.25856023      -1.32252883
H        1.41118956       2.34515061      -1.36701208
H        2.73205986       1.69155565       2.12573321
H        1.37858167       2.40838293       1.21222005
H        2.94405059       3.23775527       1.25787806
H        4.79366407       0.82982457       0.89582213
H        4.94049617       2.35693912      -0.02350419
H        4.83078496       0.80679281      -0.88542585
