16
Properties=species:S:1:pos:R:3 -1578.163327299831=T 12.130443=T 12.52931=T -9.4764=T -7.3476=T -9.246=T 1.3447=T -0.5433=T 0.276=T 8.61927=T 0.25363=T 5.3336049508=T 6.4363984278=T 0.673716612=T pbc="F F F"
C        0.71727779       0.26152865       0.13883391
C        2.08079784      -0.36256703       0.02540797
C        2.28284462      -1.68819677       0.00502259
C        3.24264214       0.58351982      -0.11210820
O        3.27125246       1.44436945       1.05427182
N        4.10467529       2.54392458       0.79268626
C        4.22522232       3.29313812       1.82547970
H        0.67080889       0.93620302       1.00634088
H       -0.06543613      -0.50063917       0.24348267
H        0.49287180       0.87430896      -0.74988709
H        1.44921083      -2.39147798       0.05289177
H        3.28731946      -2.10895825      -0.06914287
H        3.12671384       1.22281161      -1.00368772
H        4.19597815       0.03714479      -0.18917319
H        4.84994638       4.17840490       1.70352934
H        3.73872432       3.07959532       2.78434217
