6
Properties=species:S:1:pos:R:3 -628.2557047925212=T 4.45756=T 4.66876=T -12.0735=T -9.4054=T -12.005=T 0.7005=T -0.2887=T 1.418=T 11.60198=T -1.11074=T 5.3922255316=T 12.5138821828=T 0.849750889=T pbc="F F F"
C        0.98647308      -0.00002291      -0.00000091
C        2.44148072      -0.00000876       0.00000033
N        3.60751248       0.00002109       0.00000640
H        0.60763620       1.03029421       0.01179759
H        0.60759942      -0.52535096       0.88638192
H        0.60758811      -0.50493268      -0.89816533
