17
Properties=species:S:1:pos:R:3 -1632.9790267629783=T 11.06776=T 11.74697=T -9.1305=T -7.1064=T -10.463=T 0.7991=T -0.1438=T 0.211=T 10.07057=T 0.33298=T 4.3037028432=T 6.0465616466=T 0.146460671=T pbc="F F F"
C        0.06593650      -0.94535502       0.29712248
C        1.51488862      -1.42060197       0.22891082
C        1.62301952      -2.86577208      -0.25018724
N        2.23090075      -0.51808069      -0.71896413
N        3.63477166      -0.66569528      -0.63079637
C        4.38772208       0.16350432       0.15580537
O        3.92691479       0.97259893       0.95524538
H        0.00098634       0.08827949       0.66899201
H       -0.51199584      -1.58216408       0.98019071
H       -0.40338670      -0.98727559      -0.69710955
H        1.96800924      -1.33825233       1.23525465
H        1.16773844      -2.97612288      -1.24601179
H        1.10668823      -3.54018574       0.44744696
H        2.67206886      -3.18918252      -0.30769455
H        2.05207923       0.44784493      -0.41430293
H        4.07790857      -1.11370564      -1.43035657
H        5.47813972       0.01776613      -0.02040526
