10
Properties=species:S:1:pos:R:3 -1145.0509467904797=T 9.603694=T 9.69561=T -9.8432=T -7.9614=T -10.6=T -0.6971=T -2.494=T -1.197=T 9.46965=T 1.82106=T 3.2976804392=T 5.5687567984=T 0.458067006=T pbc="F F F"
C        0.93404689      -0.08247591       0.05563125
C        2.26484791       0.02791875      -0.07547706
C        3.00808155       1.30203042       0.06127440
O        4.23181953       1.35826793      -0.06769164
C        2.24470594       2.50710193       0.35678053
C        1.65563932       3.54149745       0.60298104
H        0.42957447      -1.04289949      -0.05383949
H        0.31670628       0.79054745       0.27697594
H        2.89939464      -0.83362114      -0.29669665
H        1.15371347       4.46346261       0.81979167
