17
Properties=species:S:1:pos:R:3 -1779.613045368243=T 11.707134=T 12.63906=T -8.5593=T -6.5093=T -8.242=T 1.5935=T 0.0037=T 1.388=T 7.77678=T -0.71076=T 5.2550598198=T 11.4220118724=T 0.215981974=T pbc="F F F"
C        0.91370043      -0.16303384      -0.20170164
C        2.32217237       0.32013340       0.08709264
C        3.59512712      -0.45048321      -0.44252681
C        4.35281577       0.90397199      -0.21789207
C        2.99397581       1.48361445      -0.74386536
C        2.98503370       0.88840351      -2.15875670
C        3.37995362      -0.38205508      -1.96079439
H        0.17334067       0.58889474       0.11096213
H        0.69871333      -1.08791499       0.35481622
H        0.76829867      -0.36455567      -1.27224519
H        2.43836679       0.52393628       1.16549962
H        3.93302038      -1.39582161       0.00074204
H        4.54573713       1.12916288       0.84242158
H        5.24241642       1.08407617      -0.83688860
H        2.71113921       2.53572032      -0.61193493
H        2.71274627       1.40105156      -3.07886103
H        3.51835230      -1.19098090      -2.67494749
