18
Properties=species:S:1:pos:R:3 -1817.6066699361704=T 12.009379=T 12.72198=T -9.0391=T -6.8596=T -8.961=T 0.8997=T -0.0351=T 1.393=T 8.44774=T -0.74275=T 6.0603364912=T 0.299176411=T pbc="F F F"
C        0.92766836      -0.00466725       0.09349145
C        2.44953586      -0.00954900      -0.06426494
C        3.03179547      -1.22714282      -0.75330739
C        4.09777486      -0.91389474      -1.50515054
C        4.39050962       0.56532892      -1.44087233
C        3.05968597       1.16754999      -0.89367006
N        2.12308353       1.61312647      -1.93532720
H        0.58330385       0.92481520       0.56797870
H        0.60907963      -0.84879751       0.72303380
H        0.41734722      -0.08509690      -0.87547579
H        2.89127008       0.04317899       0.95106184
H        2.63937271      -2.23476246      -0.60120143
H        4.70662558      -1.62543175      -2.06541475
H        5.23197476       0.76113642      -0.74917108
H        4.67181287       1.00715005      -2.41097072
H        3.25175520       2.03672337      -0.24554774
H        1.98510607       0.85544295      -2.61254790
H        2.54623834       2.38372007      -2.45868390
