18
Properties=species:S:1:pos:R:3 -1737.0702338482051=T 11.897446=T 12.90514=T -9.2131=T -7.056=T -9.638=T 1.1783=T -0.155=T 1.275=T 9.11627=T -0.70682=T 6.6873584904=T 0.388523123=T pbc="F F F"
C        2.21247632      -1.00497582      -0.48611116
O        3.40244925      -0.29817854      -0.17165755
C        3.25589742       1.10703467      -0.36309654
C        4.59401645       1.76853922      -0.02341309
N        5.73619831       1.26531884      -0.80731858
C        4.57171287       3.27288151      -0.11732812
C        3.52734726       4.05198580      -0.42226041
H        2.41225870      -2.06990483      -0.31214467
H        1.92085927      -0.85965810      -1.54366272
H        1.36953074      -0.68655456       0.15597737
H        2.44959801       1.49410510       0.29225600
H        2.97608318       1.32174320      -1.41582523
H        4.81440386       1.51034189       1.03058434
H        5.59500924       1.50553945      -1.79385849
H        5.73199200       0.24271924      -0.75732812
H        5.54698098       3.73085183       0.07739476
H        2.53414006       3.65293087      -0.63773954
H        3.63336606       5.13696021      -0.46159823
