19
Properties=species:S:1:pos:R:3 -1887.612849601521=T 11.343098=T 12.50245=T -9.2252=T -7.1356=T -11.277=T 0.9156=T -0.0195=T 2.898=T 10.66941=T -2.62983=T 9.2087005906=T 10.4964315852=T 0.186361114=T pbc="F F F"
C        0.95739406       0.03730908       0.19324893
C        2.48261834       0.01298811       0.01593199
C        2.99201323      -1.32518707      -0.56064141
C        2.71338284      -1.44373130      -2.05942539
O        3.27443008      -0.35020684      -2.79439206
C        2.71566211       0.89513308      -2.36121457
C        2.99407806       1.16022830      -0.88123855
H        0.63109624       0.98987434       0.63724379
H        0.62869994      -0.77357876       0.86062175
H        0.41894405      -0.08242722      -0.75824422
H        2.92920470       0.14170538       1.01698087
H        2.53117689      -2.17602422      -0.03148387
H        4.08153523      -1.39627807      -0.40761555
H        3.17401328      -2.35154316      -2.47497908
H        1.62232666      -1.50041034      -2.25450092
H        3.17838576       1.66686598      -2.99312591
H        1.62476727       0.90279060      -2.56501600
H        4.08372147       1.26613579      -0.75083950
H        2.53472978       2.11827633      -0.58555030
