19
Properties=species:S:1:pos:R:3 -1949.5317843475716=T 12.486899=T 13.48622=T -9.0176=T -6.8401=T -9.=T 0.9505=T 0.0202=T 1.463=T 8.46906=T -0.80902=T 6.2341524646=T 0.348881365=T pbc="F F F"
C        1.05045467      -0.00510166       0.62160106
C        2.43446452       0.01743073      -0.02949533
C        2.60336197       1.20716819      -0.98631688
C        4.03164414       1.29051175      -1.54039130
C        4.54813319      -0.05406734      -1.97794386
C        3.95412418      -1.21091275      -1.64935024
C        2.73008850      -1.29447481      -0.77616879
H        0.86976891       0.90687941       1.21016753
H        0.93603594      -0.86837441       1.29524896
H        0.26029311      -0.07261412      -0.14408658
H        3.19394831       0.12244067       0.76836613
H        2.33608248       2.14685623      -0.47695599
H        1.89342571       1.08892322      -1.82461552
H        4.71121223       1.71437788      -0.77721458
H        4.07088422       1.99569081      -2.38784224
H        5.44983914      -0.06950200      -2.59735641
H        4.36833375      -2.15260124      -2.02180513
H        1.85434084      -1.57374853      -1.39451713
H        2.84654419      -2.11864202      -0.05105369
