13
Properties=species:S:1:pos:R:3 -1413.715845596386=T 11.61595=T 13.54482=T -9.6696=T -7.3355=T -9.283=T 0.913=T -0.328=T 1.88=T 8.9249=T -1.5937=T 4.1869824228=T 10.946785933=T 0.632642242=T pbc="F F F"
O        0.96017809      -0.05745506       0.00136061
C        2.39710670      -0.02568376      -0.00089052
C        2.85989123       1.35521451      -0.00028779
C        3.27925675       2.49409424       0.00005643
C        3.79044165       3.86627745       0.00130588
C        2.73877043       4.88188620      -0.08268938
C        1.87770689       5.73192718      -0.15160451
H        0.69674443      -0.99415295      -0.00275154
H        2.80268086      -0.53898457      -0.89388447
H        2.80550409      -0.54046111       0.89004075
H        4.48847331       3.99960411      -0.84408226
H        4.38490631       4.03786499       0.91610822
H        1.10674925       6.47235877      -0.21321141
