12
Properties=species:S:1:pos:R:3 -1244.227966562283=T 8.838048=T 9.61579=T -9.4398=T -7.2088=T -10.613=T 0.6243=T -0.4968=T 1.401=T 10.00027=T -1.03738=T 5.347702159=T 10.7612284854=T 0.307107953=T pbc="F F F"
N        0.87265038      -0.04037991       0.17933676
C        2.03642194      -0.01919615       0.08637954
C        3.48538725       0.00593098       0.00753215
C        4.25603575       1.05287060       0.87283029
N        5.13476158      -0.01691435       1.43859658
C        4.28878675      -1.07272245       0.80119863
H        3.78699516       0.04618545      -1.04916390
H        3.62969046       1.51449522       1.65030895
H        4.76656634       1.84318190       0.30612806
H        6.06015602       0.01191873       1.00627294
H        4.82284533      -1.80695382       0.18308211
H        3.67776304      -1.60473620       1.54515788
