17
Properties=species:S:1:pos:R:3 -1603.1537718036636=T 11.628107=T 12.28969=T -7.7608=T -5.8706=T -9.387=T 0.846=T -0.0799=T 0.916=T 8.71112=T -0.24906=T 5.64508258=T 9.6012526652=T 0.170685929=T pbc="F F F"
C        2.62697314      -1.18148402      -0.32983348
N        1.91901766       0.04072803       0.02654039
C        2.57769360       1.25923878      -0.05022516
C        1.75620410       2.49642872       0.17213557
N        3.86071249       1.24491978      -0.25577096
O        4.37952724       2.57704435      -0.18039435
C        5.78264967       2.50201410      -0.41490535
H        1.94076110      -2.02973008      -0.22012612
H        3.47782815      -1.31952494       0.35035419
H        3.02705660      -1.15819454      -1.35828090
H        0.94785254       0.08245418      -0.27091233
H        0.69231155       2.25634659       0.29207361
H        1.88497555       3.19415077      -0.66641672
H        2.10251376       3.02030230       1.07411249
H        6.14665745       3.53598098      -0.35524468
H        5.99970955       2.08699304      -1.41300023
H        6.28242583       1.88491196       0.34963405
