13
Properties=species:S:1:pos:R:3 -1270.0381042250497=T 7.97635=T 8.85882=T -9.9961=T -7.7908=T -11.958=T 0.9611=T 0.0248=T 2.87=T 11.07724=T -2.60316=T 9.2447557194=T 11.291033062=T 0.28580483=T pbc="F F F"
C        0.99412872       0.12194593       0.06272667
C        2.50027010      -0.07773964      -0.13559426
C        3.26286939       1.22267904      -0.06274596
C        3.88795302       1.69903509       1.18322334
O        4.69229304       1.14131892       0.12455174
H        0.45542344      -0.83093019      -0.03002741
H        0.57906429       0.81179622      -0.68757999
H        0.77347363       0.53852263       1.05666144
H        2.69105569      -0.54254694      -1.11717292
H        2.90527806      -0.76599341       0.62282849
H        2.96157178       1.98655999      -0.79387727
H        3.81347392       1.08024930       2.08517703
H        4.02186492       2.77280305       1.35386910
