13
Properties=species:S:1:pos:R:3 -1325.3098019929514=T 9.738869=T 9.99589=T -8.9669=T -6.9557=T -9.765=T 0.9623=T -0.5697=T 0.593=T 9.31348=T 0.00281999999999=T 4.7295451588=T 6.2295649826=T 0.13684468=T pbc="F F F"
O        1.14434408       0.04388827      -0.49408618
N        2.37782805      -0.07826695       0.25462817
C        3.04509659       1.15544654       0.38980136
N        4.29051354       1.18222871       0.05020228
C        4.62959595      -0.11674663      -0.46744910
C        4.53061150      -1.28478873       0.49849327
C        3.35031974      -0.97180622      -0.36918273
H        0.50579506      -0.42589276       0.07545399
H        2.50027964       2.00008035       0.81213110
H        5.35977020      -0.14450667      -1.27767209
H        5.09904005      -2.18158661       0.24921792
H        4.46937976      -1.04863784       1.56294068
H        2.96132586      -1.65114145      -1.12544868
