11
Properties=species:S:1:pos:R:3 -1276.338611324365=T 10.766605=T 11.78535=T -9.8889=T -7.6977=T -9.959=T 0.6063=T -1.3639=T -0.271=T 9.62914=T 0.95879=T 3.652441581=T 8.849872708=T 0.082896236=T pbc="F F F"
O        1.33571515      -0.39821352       0.78658981
C        2.23358085      -0.07410196       0.05082081
C        2.98215696       1.29731568       0.10583579
C        2.62054099       2.11325264       1.25884653
C        2.29391665       2.78065366       2.21508711
C        4.41945355       1.04832306      -0.01847366
C        5.59302566       0.76706248      -0.13479267
H        2.61815270      -0.72976198      -0.76772510
H        2.64452980       1.81280720      -0.81857937
H        2.01278146       3.36840311       3.06500241
H        6.63723623       0.54712961      -0.22752167
