9
Properties=species:S:1:pos:R:3 -836.6785797051283=T 6.327468=T 6.35349=T -9.7038=T -7.4287=T -10.67=T 1.8301=T -0.1276=T 0.459=T 10.24125=T 0.08473=T 5.4998825754=T 13.403010586=T 0.321490238=T pbc="F F F"
C        0.99893264       0.00591025      -0.01817013
C        2.47484389       0.09434526       0.18110833
N        3.11931588       1.10597060      -0.27147222
O        4.50591117       0.99527452       0.01902006
H        0.73771660      -0.90203601      -0.58353468
H        0.62984172       0.88304374      -0.56336593
H        0.47811521      -0.05905522       0.94963273
H        3.00229878      -0.70978999       0.71478733
H        4.85542411       1.81589685      -0.37237549
