13
Properties=species:S:1:pos:R:3 -1316.8151838394306=T 9.391521=T 9.80554=T -9.035=T -6.9909=T -10.26=T 1.2488=T -0.4304=T 0.5=T 9.80543=T 0.07455=T 5.1388601406=T 6.4293188272=T 0.165513368=T pbc="F F F"
C        0.91078135      -1.06264347       0.91377667
C        1.19788277      -0.33434288      -0.34138001
C        0.87972375       1.12955698      -0.48849597
O       -0.28376913       1.52193381       0.26450822
N       -1.43694850       0.71788361       0.03399953
C       -1.20994962      -0.53055694      -0.18721515
N        0.02142292      -1.23500813      -0.29047814
H        1.48038734      -1.95768428       1.16853910
H        0.50010878      -0.49375889       1.74999344
H        1.99264602      -0.70835528      -0.99689755
H        1.68940241       1.77059181      -0.11114868
H        0.71198599       1.35998375      -1.55702531
H       -2.10812406      -1.13930009      -0.32442614
