15
Properties=species:S:1:pos:R:3 -1508.3435518558645=T 12.113559=T 13.72317=T -9.261=T -7.014=T -9.214=T 0.8684=T -0.1895=T 2.311=T 8.7836=T -1.81459=T 4.1563702794=T 11.9605078676=T 0.490131105=T pbc="F F F"
N        1.28486699      -0.28626083       0.60810285
C        2.34583217       0.03098950      -0.37016819
C        2.84826534       1.38935133      -0.19655643
C        3.22738316       2.53903230      -0.07441602
C        3.71622155       3.87865470       0.10031704
C        4.38096299       4.63207049      -1.01254450
N        3.00450282       4.97678897      -0.62313442
H        0.89662512      -1.20724096       0.38836818
H        0.52043474       0.38554118       0.49745775
H        2.03687377      -0.08253129      -1.43008933
H        3.17403776      -0.68117142      -0.21187110
H        4.08067624       4.10611981       1.10738302
H        4.46675983       4.14798049      -1.98723182
H        5.20336557       5.29973729      -0.74274859
H        3.01483194       5.81174842      -0.02743845
