14
Properties=species:S:1:pos:R:3 -1465.7630446396258=T 10.506452=T 11.72637=T -10.0039=T -7.6122=T -9.81=T 1.0081=T 0.1075=T 2.339=T 9.39501=T -1.93379=T 4.3703949126=T 11.9951123602=T 0.305809595=T pbc="F F F"
C        5.35330374      -1.89801203      -0.51357355
C        4.57518510      -1.02584441      -0.18527697
C        3.65554049       0.03633722       0.21367393
C        4.30399103       1.41365959       0.25593909
C        4.39788710       2.24113513      -1.00010945
C        3.44294388       2.64367291       0.10306033
H        6.03869370      -2.66740642      -0.80434589
H        3.23293000      -0.20633790       1.20420027
H        2.80210058       0.05759396      -0.48610276
H        5.14536682       1.48948863       0.94841468
H        3.97126364       1.82119465      -1.91257311
H        5.29317571       2.84308553      -1.15592236
H        3.68336540       3.52056802       0.70454258
H        2.37571283       2.49667510      -0.07276676
