12
Properties=species:S:1:pos:R:3 -1273.6853531190036=T 11.207909=T 11.57597=T -9.6622=T -7.6372=T -10.107=T -0.0743=T -1.8489=T -0.267=T 9.73596=T 0.91884=T 4.4668188248=T 5.7526032392=T 0.71108969=T pbc="F F F"
C        1.45916559      -0.46485820      -0.39163954
N        2.67616642      -0.27698172      -0.03197835
N        3.05166905       1.08346969      -0.18919502
C        4.25868510       1.27921788       0.19748864
C        4.85265385       2.65864770       0.07569397
C        5.47070456       3.11161241       1.32101936
N        5.96516235       3.46568324       2.31572608
H        1.06127159      -1.47916695      -0.30974077
H        0.82342868       0.34834168      -0.76825072
H        4.87708588       0.46575745       0.60368496
H        4.07116956       3.36667198      -0.23495773
H        5.63175738       2.65367485      -0.70658088
