17
Properties=species:S:1:pos:R:3 -1737.7988867409995=T 13.274209=T 13.4814=T -8.7218=T -6.7274=T -8.502=T 0.3652=T -1.1163=T 0.206=T 7.95611=T 0.35137=T 5.0926257612=T 0.762434214=T pbc="F F F"
C        4.37262584      -1.31773928       1.02107656
C        3.20998174      -0.48409658       0.54760944
C        1.94455500      -0.95666488       0.57527264
C        3.46383177       0.86689668       0.04887211
C        4.66703841       1.47055554      -0.04685715
C        4.85430574       2.86758043      -0.54857123
O        5.47201227       3.72106420       0.43392908
H        4.90844076      -0.81966881       1.84384357
H        5.10171700      -1.47672136       0.21162930
H        4.03455933      -2.29918293       1.37626697
H        1.71602973      -1.95885086       0.94046222
H        1.10671614      -0.34778378       0.23005737
H        2.57722185       1.42386375      -0.27875856
H        5.57654679       0.95396654       0.27566984
H        3.88783033       3.28467509      -0.88776037
H        5.54539977       2.88626055      -1.40623777
H        4.93003752       3.65873570       1.24128598
