19
Properties=species:S:1:pos:R:3 -1872.2794957105086=T 11.767923=T 13.68444=T -9.7051=T -7.6492=T -11.762=T 0.9277=T 0.0368=T 2.771=T 11.47449=T -2.50797=T 9.1990544798=T 10.8578383766=T 0.370498859=T pbc="F F F"
C        0.95463643      -0.13406868      -0.20794878
C        2.47693789      -0.10343930      -0.35477619
C        3.12072595       1.09143344       0.36062434
C        4.61608324       1.14689570       0.16669258
O        5.36693475       2.01438727       1.04870277
C        5.57433087       0.58383108       1.13588063
C        6.93365711       0.07249141       0.74030266
H        0.51820973      -0.99763813      -0.72959572
H        0.49724629       0.77568827      -0.62594756
H        0.65792250      -0.19726045       0.85010922
H        2.74243411      -0.07326984      -1.42555155
H        2.90771331      -1.03908077       0.04021736
H        2.90117948       1.05663485       1.44051862
H        2.67940288       2.02974940      -0.01899284
H        4.95025142       1.19901322      -0.88033716
H        5.14844515       0.14171755       2.04803034
H        7.26885218       0.53976188      -0.19533449
H        6.90935241      -1.01886771       0.59974509
H        7.67470431       0.29526081       1.52175068
