15
Properties=species:S:1:pos:R:3 -1611.9225660146813=T 11.472156=T 11.8314=T -7.9326=T -5.8966=T -8.06=T 0.8489=T -0.6975=T 0.407=T 7.60073=T 0.14275=T 4.3057610108=T 6.6645946608=T 0.335461637=T pbc="F F F"
C        0.91822924      -0.04785970      -0.03162559
C        2.41374908       0.06549685       0.06124540
C        3.09842919       1.20037208      -0.20711340
C        4.58696764       1.18925240      -0.02338947
O        5.17939563      -0.07651821      -0.44695287
C        4.50343603      -1.16104210       0.01717659
C        3.19415385      -1.13291547       0.36158092
H        0.62125839      -0.79264217      -0.78656432
H        0.45803416       0.91382277      -0.29347864
H        0.49553793      -0.38173279       0.92936159
H        2.60382336       2.11626654      -0.53557902
H        5.09426161       1.95544920      -0.62284778
H        4.86691761       1.33144912       1.04185906
H        5.11372986      -2.06570202      -0.00852888
H        2.71324642      -2.04924651       0.70217641
