14
Properties=species:S:1:pos:R:3 -1473.5220163101621=T 12.274429=T 13.65091=T -9.1962=T -7.0951=T -9.797=T 0.982=T -0.2126=T 2.12=T 9.7282=T -1.94959=T 4.4044538668=T 10.867620872=T 0.705482667=T pbc="F F F"
C        1.07803853      -0.21456414      -0.56719564
C        2.27001406      -0.17831184      -0.34545595
C        3.69636742      -0.12274391      -0.05106343
N        4.26711557       1.19586236      -0.36050129
C        5.65975793       1.28928482       0.10077674
C        6.18660691       2.64115722      -0.03728793
C        6.61817043       3.77144389      -0.12403999
H        0.02691055      -0.24555138      -0.76972455
H        4.22292145      -0.87636887      -0.66377770
H        3.85124481      -0.42418413       1.00995384
H        3.71034081       1.92087594       0.09981458
H        6.26970304       0.59816637      -0.50825232
H        5.78876018       0.96543279       1.15860893
H        7.00377830       4.76648087      -0.21391528
