16
Properties=species:S:1:pos:R:3 -1598.091430365532=T 11.187616=T 11.84985=T -8.916=T -6.7804=T -9.368=T 0.8589=T -0.1407=T 1.359=T 8.84927=T -0.78276=T 6.5830862644=T 0.492077243=T pbc="F F F"
O        0.94727342      -0.35257518       0.03456066
C        2.35343693      -0.17805333       0.03128559
C        2.94777118       1.03277011       0.82835903
N        3.92639599       0.14031429       1.52544481
C        3.20851901      -1.06342229       1.00047679
C        2.85063252      -0.23175677      -1.38248702
C        2.08951155      -0.40624903      -2.46676769
H        0.64953257      -0.31658768       0.95956510
H        2.21780282       1.45353812       1.54164294
H        3.37604192       1.85555823       0.23764633
H        4.84593500       0.21865581       1.08583395
H        3.83540760      -1.84176026       0.54142413
H        2.58865682      -1.52853357       1.78664971
H        3.93482713      -0.11350293      -1.48591257
H        1.00943999      -0.52521960      -2.38043042
H        2.53098554      -0.43234592      -3.46336133
