12
Properties=species:S:1:pos:R:3 -1199.0815620667222=T 10.561173=T 10.82294=T -8.6828=T -6.6632=T -9.256=T 1.3462=T -0.4276=T 0.552=T 8.72321=T -0.02448=T 4.4096736774=T 10.7937376146=T 0.478850526=T pbc="F F F"
C        1.14628693      -0.09177530       0.25022545
N        2.40473097      -0.04130913      -0.01383467
N        2.97694494       1.17080331      -0.24163703
C        4.42011641       1.19945480       0.02168456
C        4.99727379       2.48225433      -0.36161083
C        5.47677913       3.55842558      -0.64938738
H        0.69499763      -1.07741053       0.36380246
H        0.51064782       0.80324190       0.35067176
H        2.47423226       1.98620177       0.13440123
H        4.87334678       0.38452297      -0.56370953
H        4.65410101       1.00003814       1.08591705
H        5.90538233       4.50268215      -0.91732306
