11
Properties=species:S:1:pos:R:3 -1275.5710556970816=T 9.508778=T 9.13844=T -9.5411=T -7.5131=T -9.196=T 0.6177=T -0.9692=T 0.146=T 9.58546=T 0.4188=T 4.3981925738=T 6.5947037526=T 0.62043558=T pbc="F F F"
C       -1.41207516      -0.07690597      -0.01823045
C       -0.76132286       1.15846420       0.00483848
C        0.63635319       1.17596651       0.04385109
N        1.39903209       0.06953631       0.06063718
C        0.75564834      -1.11016063       0.03799726
C       -0.63628037      -1.23795411      -0.00125216
H       -2.50155279      -0.13376800      -0.04887857
H       -1.32262466       2.09406567      -0.00705096
H        1.17461129       2.12896947       0.06269030
H        1.39015663      -2.00209432       0.05197458
H       -1.09716569      -2.22682912      -0.01814674
