13
Properties=species:S:1:pos:R:3 -1355.5611444914841=T 10.004954=T 10.41579=T -8.459=T -6.5697=T -9.429=T 1.3257=T -0.3509=T -0.019=T 8.71237=T 0.51316=T 5.045486284=T 12.4228268644=T 0.248860048=T pbc="F F F"
C        3.06976242      -1.23864374       0.41029515
N        2.55711085      -0.05532737      -0.27076512
C        3.22090092       1.14891894      -0.13135358
N        2.55726255       2.29848017      -0.22861101
O        3.54888000       3.30639993      -0.12776063
C        4.74703819       2.71413684       0.04671946
C        4.62622845       1.35717225       0.05916130
H        2.40625830      -2.08354013       0.18964455
H        3.14252304      -1.12292226       1.50697772
H        4.06453821      -1.49599361       0.02006657
H        1.54653894       0.06128916      -0.21948402
H        5.59661068       3.38384902       0.14633788
H        5.41415746       0.62232081       0.17612172
