14
Properties=species:S:1:pos:R:3 -1403.114105198994=T 9.480975=T 9.77533=T -8.371=T -6.3326=T -9.191=T 0.7825=T -0.1804=T 1.057=T 8.49816=T -0.46663=T 4.8442942018=T 8.272097948=T 0.170578235=T pbc="F F F"
C        0.39449257       1.35856482       0.31469950
C        1.41546471       0.35947944      -0.23416243
N        0.97003448      -0.98186517       0.12611190
C       -0.38020711      -1.26577556       0.18045241
N       -1.36398034      -0.44164579       0.08764785
C       -1.01993771       0.96652519      -0.13485469
H        0.64527391       2.37639292      -0.01940620
H        0.44404969       1.34861168       1.41509788
H        2.41186426       0.53622747       0.19848130
H        1.50272279       0.47113236      -1.33144732
H        1.60986052      -1.75958043       0.00684049
H       -0.59858492      -2.32785812       0.35415876
H       -1.15297953       1.19033004      -1.20926196
H       -1.76374331       1.58397115       0.39423250
