17
Properties=species:S:1:pos:R:3 -1682.8118335683603=T 10.752137=T 12.05607=T -9.4342=T -7.2339=T -10.814=T 1.0379=T -0.862=T 0.1=T 9.94217=T 0.54352=T 3.6838224376=T 11.4467966738=T 0.127573362=T pbc="F F F"
C        1.54817831       2.10562348       0.25367776
O        2.94809302       2.29822049       0.41032521
C        3.69131720       1.63109956      -0.60220536
C        5.18672461       1.92200909      -0.41143183
C        6.06449166       1.01898085      -1.27404287
C        5.46910094       3.40018046      -0.62948287
O        6.39766427       3.83683819      -1.28587422
H        1.05408410       2.65610859       1.06375001
H        1.27746503       1.03535856       0.32510898
H        1.19228826       2.49458866      -0.71873317
H        3.35997956       1.96551919      -1.60785500
H        3.52158650       0.53666818      -0.54869253
H        5.39478103       1.74493500       0.66238056
H        5.81847516       1.13188884      -2.34005180
H        5.93037587      -0.03562390      -0.99731230
H        7.12261884       1.28295623      -1.15781800
H        4.74750564       4.08916852      -0.12564256
