15
Properties=species:S:1:pos:R:3 -1499.19174897253=T 10.470163=T 11.41052=T -9.1961=T -7.1487=T -10.108=T 0.81=T -0.1923=T 0.93=T 9.40789=T -0.39556=T 5.2236913618=T 11.7608036174=T 0.245709919=T pbc="F F F"
N        1.20055580       1.43578494      -0.47732818
C        2.45716483       1.70826397       0.05970692
N        2.76558387       2.36658408       1.11432979
O        3.40298434       1.07405149      -0.70069281
C        4.74218925       1.17367365      -0.22409334
C        5.78753083       0.72049774      -1.19194567
C        5.64462286       2.19540067      -0.84874551
H        1.21589859       1.14003339      -1.45116903
H        0.49306099       2.13641999      -0.28073196
H        1.92933578       2.73673710       1.57532555
H        4.83620795       0.96189449       0.84086189
H        5.44358358       0.40653943      -2.17770886
H        6.63842183       0.16264853      -0.80118607
H        6.39114824       2.67246751      -0.21376507
H        5.20481123       2.83852302      -1.61088767
