18
Properties=species:S:1:pos:R:3 -1740.911918928031=T 11.089272=T 12.21999=T -9.2467=T -7.0844=T -10.626=T 0.7989=T -0.1641=T 2.578=T 9.91512=T -2.23323=T 8.1458058084=T 11.5116537504=T 0.265419391=T pbc="F F F"
C        1.11695212       0.23835806       0.07439773
C        2.61680829      -0.11879645      -0.00526379
C        3.03226390      -0.97572022       1.19509116
N        2.96556468      -0.87470310      -1.23076055
C        3.40145975       1.19308844      -0.07771562
C        3.82183697       1.98024586       1.09270928
O        4.77927764       1.21904218       0.32724928
H        0.81232919       0.85250423      -0.78756112
H        0.87644996       0.79821284       0.99154090
H        0.50857578      -0.67858779       0.06512854
H        2.75568249      -0.50247729       2.14711693
H        4.11515190      -1.15053297       1.17969070
H        2.51803097      -1.94759666       1.15209171
H        2.65036386      -0.35710804      -2.05716995
H        2.44985710      -1.75956135      -1.23850979
H        3.21226483       1.75472748      -1.00558741
H        3.63259481       1.60243208       2.10259066
H        3.91125578       3.06868269       1.00553133
