15
Properties=species:S:1:pos:R:3 -1624.2394810741832=T 10.255551=T 11.2785=T -9.2301=T -7.1732=T -10.52=T 0.9903=T -0.7644=T 0.347=T 9.58277=T 0.4113=T 3.756031884=T 11.8067156332=T 0.263673506=T pbc="F F F"
O        1.94211765       0.04078899       1.63775422
C        2.53712845       0.01337674       0.57759495
C        2.95198251      -1.25829822      -0.17903759
C        3.92393269      -0.80391704      -1.24687662
C        5.14710367      -0.04888883      -0.78211975
C        3.94634275       0.72485932      -1.27381628
C        2.98864702       1.24487232      -0.22321006
H        2.03878205      -1.69486601      -0.61861020
H        3.34993389      -1.99898621       0.53030147
H        3.98766621      -1.36533635      -2.17919012
H        5.37064807      -0.03331160       0.28829055
H        6.02750266      -0.07311238      -1.42454063
H        4.02606915       1.25097099      -2.22529446
H        3.40844379       1.99818894       0.45974118
H        2.08840942       1.69218935      -0.67842667
