17
Properties=species:S:1:pos:R:3 -1678.8634053774445=T 11.395629=T 11.88813=T -8.1449=T -6.1501=T -8.964=T 0.9194=T -0.1461=T 0.827=T 8.43437=T -0.20092=T 4.5169215674=T 8.9478960396=T 0.19341926=T pbc="F F F"
C        1.75749802      -0.14611717      -0.01645070
C        0.87152226      -1.28042399       0.51839453
C       -0.41015068      -1.49273466      -0.29979592
C       -1.47780350      -0.43697165      -0.07344775
N       -1.38782639       0.79709888       0.29651290
N       -0.15443075       1.39800947       0.46779706
C        0.93602222       1.06624001      -0.46521610
H        2.35153462      -0.49877562      -0.87656371
H        2.47412796       0.15488148       0.76369254
H        1.44931854      -2.21737731       0.54755791
H        0.58551270      -1.05619465       1.55785808
H       -0.86292520      -2.45781693      -0.01983461
H       -0.17616753      -1.58841553      -1.37637592
H       -2.51500339      -0.77869179      -0.16506682
H       -0.32060270       2.40092430       0.51785383
H        1.58179643       1.95380258      -0.54466168
H        0.50656740       0.88789257      -1.47019364
