19
Properties=species:S:1:pos:R:3 -1815.2159687712258=T 12.989152=T 14.21787=T -9.2086=T -6.9409=T -9.09=T 1.0274=T -0.0693=T 1.415=T 8.55941=T -0.77368=T 6.3289025658=T 0.400509761=T pbc="F F F"
N        0.90404435       2.44199090      -1.27873448
C        2.27673459       1.91620561      -1.33895937
C        3.06930718       2.34169136      -0.09423020
C        4.43093314       1.71627560      -0.02818685
C        5.59474259       2.38111518      -0.03644301
C        6.94733440       1.73526898       0.03848207
N        7.78269372       2.16085499      -1.10004348
H        0.37499754       2.12533195      -2.09464316
H        0.92497433       3.46421943      -1.33761562
H        2.84401358       2.22279041      -2.24119797
H        2.21173171       0.81554020      -1.36435319
H        2.47443772       2.05590007       0.79061605
H        3.16356014       3.44092500      -0.07505351
H        4.45636745       0.61947876       0.03102077
H        5.59685386       3.47522814      -0.11182859
H        6.82118078       0.63762211       0.13394048
H        7.45910268       2.07739806       0.95548622
H        7.39300245       1.78216563      -1.96729142
H        8.72331779       1.77043764      -1.00731474
