13
Properties=species:S:1:pos:R:3 -1351.405989897158=T 9.663657=T 10.60532=T -9.5582=T -7.4157=T -10.708=T 0.954=T -0.4761=T 1.204=T 10.16296=T -0.81975=T 5.3399034396=T 12.1495493218=T 0.241913342=T pbc="F F F"
O        0.90185716       0.01131626       0.13453453
C        2.30497105      -0.03542127       0.03346559
C        3.05673224       1.01825483       0.86183822
N        4.01421895      -0.01994196       1.38501202
C        3.09317598      -1.10184517       0.88063692
C        3.70336229      -2.20408597       0.16146525
N        4.19436695      -3.05860198      -0.46584493
H        0.51378370      -0.53219118      -0.57307571
H        2.64756277      -0.05740272      -1.01445477
H        2.43442246       1.40917873       1.68129125
H        3.51055086       1.85571874       0.31658052
H        4.86782335      -0.02188525       0.81874891
H        2.47289224      -1.48777306       1.70670221
