17
Properties=species:S:1:pos:R:3 -1674.4798497412075=T 11.269223=T 12.23752=T -8.7645=T -6.6555=T -9.23=T 0.9206=T 0.0192=T 1.209=T 8.65753=T -0.65847=T 6.2092064814=T 0.352358931=T pbc="F F F"
C        2.45736424       0.87056831       1.96237862
O        2.55622890       0.77496842       0.53550724
C        2.96498917       1.95399003      -0.06835326
O        4.35362906       2.18702908       0.23933369
C        4.92409421       3.32007803      -0.28398865
C        6.35217412       3.43082957       0.15965675
C        4.30457135       4.20839027      -1.08567280
H        2.01725409      -0.07271727       2.30642369
H        1.80033351       1.70973721       2.25346129
H        3.44711359       1.00629303       2.42409303
H        2.37997756       2.82763407       0.28720680
H        2.84587187       1.81985061      -1.15570188
H        6.41220070       3.47204688       1.25758286
H        6.81888466       4.33102856      -0.25571870
H        6.92413058       2.54929849      -0.16595997
H        3.26980352       4.11370264      -1.40655259
H        4.86030886       5.07227206      -1.44377613
