16
Properties=species:S:1:pos:R:3 -1578.6429998744193=T 10.709979=T 11.41055=T -9.1962=T -7.0171=T -9.=T 0.979=T -0.1981=T 1.265=T 8.43028=T -0.61374=T 6.0971603332=T 0.377281367=T pbc="F F F"
C        1.00042198       0.01100544       0.06616133
C        2.50214724      -0.10940822       0.04152144
C        3.01795459      -1.51830347       0.17660531
C        3.27714886       0.98849943      -0.07922815
C        4.77145520       1.05697728      -0.14195155
O        5.23328602       1.63255071      -1.38284003
H        0.67148238       1.05313361      -0.03784789
H        0.58936722      -0.38846928       1.00830718
H        0.54529483      -0.58056115      -0.74561554
H        2.55650053      -2.16946253      -0.58374157
H        2.73473223      -1.93950080       1.15547963
H        4.10698910      -1.59663675       0.08038753
H        2.77879426       1.96034571      -0.17415671
H        5.23762209       0.07049276       0.02590318
H        5.15569327       1.73490549       0.63692599
H        4.77159019       1.15897176      -2.09790015
