15
Properties=species:S:1:pos:R:3 -1476.872574007533=T 12.153352=T 11.95671=T -7.6213=T -5.8064=T -8.538=T 1.059=T -0.502=T -0.065=T 7.92407=T 0.69836=T 4.5207651334=T 0.329798068=T pbc="F F F"
C        1.06645093      -0.02304932      -0.11360123
C        2.56301867       0.09213258       0.06946336
C        3.28614183      -1.15338606       0.24217264
C        4.62238650      -1.34418550       0.43717168
N        5.20266186      -2.57065259       0.66984047
N        2.98392205       1.32516417       0.03893142
O        4.40310621       1.42260800       0.20492140
H        0.61994446       0.97320569      -0.20977430
H        0.60797785      -0.53897410       0.74418901
H        0.82902749      -0.60708762      -1.01638801
H        2.65356304      -2.04885072       0.21823800
H        5.30713011      -0.50002161       0.47091825
H        4.65666615      -3.40402299       0.46739664
H        6.19543703      -2.66331711       0.48733670
H        4.52251583       2.38633718       0.16167397
