11
Properties=species:S:1:pos:R:3 -1131.1556427004557=T 9.53988=T 10.07737=T -9.8522=T -7.679=T -10.112=T 1.354=T -0.4928=T 0.278=T 9.72044=T 0.30866=T 4.36616699=T 10.7396921172=T 0.435081052=T pbc="F F F"
O        0.86229744       0.51684473      -0.73353616
N        2.26346581       0.45080885      -0.91671726
C        2.88012847       1.09467696       0.00199670
C        4.38655584       1.11559202      -0.01910584
C        4.92667116       2.47235539       0.00187588
C        5.35983798       3.60515261       0.03264479
H        0.53659498       0.00494166      -1.49593462
H        2.34510437       1.62774474       0.79871873
H        4.73366157       0.57410373      -0.91252811
H        4.76820169       0.56487122       0.85957063
H        5.74671070       4.60356808       0.04749525
