19
Properties=species:S:1:pos:R:3 -1867.0111775612634=T 11.601963=T 13.22111=T -9.9353=T -7.7695=T -11.915=T 0.909=T 0.0001=T 2.778=T 11.04727=T -2.51036=T 9.2453508522=T 11.3003816064=T 0.205942579=T pbc="F F F"
C        0.83554116       0.02874998       0.01899983
C        2.36082452      -0.06921628      -0.04255925
C        3.04558385       1.30239827      -0.03335850
C        4.57633289       1.25447926      -0.15418717
C        5.25523044       0.62637541       1.04026102
C        5.73601581      -0.76640194       1.05009344
O        6.66259695       0.32775086       0.90756526
H        0.36672752      -0.96564559       0.01076421
H        0.43812964       0.59246026      -0.83918645
H        0.50638210       0.54485184       0.93410662
H        2.65960369      -0.61433721      -0.95505488
H        2.72481051      -0.67211373       0.80580222
H        2.76796629       1.84196261       0.89024997
H        2.64735236       1.90777872      -0.86499623
H        4.96462068       2.28064359      -0.26453411
H        4.87440295       0.70585072      -1.06297148
H        4.99612405       1.07066053       2.01214956
H        5.60116208      -1.38025781       0.15234326
H        5.80406252      -1.31658949       1.99513267
