13
Properties=species:S:1:pos:R:3 -1376.8200751288236=T 9.675532=T 10.82948=T -9.9318=T -8.0009=T -10.008=T 1.151=T -0.6035=T -0.15=T 9.27852=T 0.71683=T 5.0117744906=T 7.0961279338=T 0.331099791=T pbc="F F F"
C        1.29199511       0.12549205       0.00486642
C        2.77624309       0.05164906      -0.00107917
N        3.64548830       1.02833780      -0.00773175
C        4.85400624       0.35457546      -0.00888047
C        6.17411721       1.04301416      -0.01599128
N        4.75229580      -0.95955460      -0.00355444
O        3.34978810      -1.17560774       0.00174865
H        0.85623805      -0.87899130      -0.00470267
H        0.94058727       0.68186020      -0.87391086
H        0.94638588       0.66130912       0.89878359
H        6.98635638       0.30823905      -0.01010234
H        6.26576441       1.69361815       0.86431245
H        6.26471413       1.67767860      -0.90802812
