19
Properties=species:S:1:pos:R:3 -1812.123012918644=T 11.99231=T 13.25518=T -8.6654=T -6.4664=T -9.961=T 0.8924=T -0.0577=T 3.083=T 9.5282=T -2.7352=T 7.9429647124=T 12.6366903158=T 0.181282192=T pbc="F F F"
N        2.02812097       2.65415475      -2.57739758
C        3.32017309       2.78360478      -1.87725520
C        3.56472970       1.55866798      -0.99366589
C        4.88796284       1.59390251      -0.24593288
N        4.96455512       2.68708366       0.71612591
C        5.59109006       0.27229530       0.02244784
C        6.14385721       1.25162321      -1.00119275
H        1.89718584       3.45185503      -3.20417997
H        1.26559047       2.71151906      -1.89559882
H        3.41675813       3.69436761      -1.25834291
H        4.11091331       2.83293900      -2.64406734
H        3.51211895       0.65282091      -1.61750495
H        2.74369292       1.47202157      -0.25625805
H        5.92577696       2.80624706       1.04302812
H        4.40477976       2.45574793       1.54298471
H        5.13808679      -0.65148231      -0.34267157
H        6.13168784       0.17526664       0.96562726
H        7.05864768       1.79172275      -0.74842737
H        6.05496237       0.99532256      -2.05810858
