15
Properties=species:S:1:pos:R:3 -1573.374412518023=T 9.796098=T 10.88323=T -10.0426=T -7.9647=T -11.131=T 0.7324=T -0.2026=T 0.216=T 10.27425=T 0.4621=T 4.363749263=T 13.1568115858=T 0.119270431=T pbc="F F F"
C        0.87317578      -0.02194718       0.12548421
C        2.39156287       0.04149933      -0.04347234
C        2.81518210       0.03827492      -1.51274494
C        3.12783558       1.05102905       0.86673262
O        3.78287262      -0.05547639       1.60201486
C        3.14366884      -0.99762148       0.80966500
O        3.23618490      -2.19319461       0.87526655
H        0.58178408      -0.01728902       1.18507101
H        0.47894036      -0.94068671      -0.33047149
H        0.39652647       0.83729417      -0.36919351
H        3.90772194       0.08596737      -1.62076983
H        2.37643888       0.89855463      -2.03964397
H        2.46537898      -0.87917224      -2.00603852
H        2.49957138       1.63793916       1.54947066
H        3.88431522       1.68134902       0.38117968
