10
Properties=species:S:1:pos:R:3 -1154.3453856019141=T 10.141426=T 10.78904=T -10.245=T -8.31=T -10.949=T -1.1094=T -3.0146=T -1.79=T 10.38589=T 2.08421=T 3.172429782=T 7.5835664942=T 0.279483278=T pbc="F F F"
N        1.02003424       0.02517964       0.00000000
C        2.38402543      -0.06816477       0.00000000
O        3.01012410      -1.12477614       0.00000000
C        3.06494494       1.22578675       0.00000000
C        3.68432963       2.27676672       0.00000000
C        4.46803237       3.49008232       0.00000000
O        3.98080856       4.61142653       0.00000000
H        0.55028169       0.92397818       0.00000000
H        0.47561196      -0.83202270       0.00000000
H        5.57078709       3.32716347       0.00000000
