17
Properties=species:S:1:pos:R:3 -1747.3603202790919=T 11.363319=T 12.16968=T -9.2815=T -7.0973=T -9.107=T 0.9484=T 0.0091=T 1.334=T 8.58139=T -0.70366=T 6.236743772=T 0.363650807=T pbc="F F F"
C        1.04742272       0.20205935       0.04719386
C        2.55833309      -0.05489130       0.14236967
O        3.31485106       1.11043961      -0.23823625
C        3.55783454       1.19197088      -1.64680978
C        4.41954154       0.02843168      -2.13202693
C        3.85528354      -1.26730137      -1.61989852
C        2.98483574      -1.29280393      -0.60152736
H        0.77841028       1.07908445       0.65077666
H        0.48441301      -0.66585782       0.42074657
H        0.74023232       0.37732438      -0.99350736
H        2.81440045      -0.19498960       1.20852988
H        4.05419527       2.16003693      -1.80246051
H        2.60321048       1.20453194      -2.20819484
H        5.46222200       0.15492607      -1.79078302
H        4.45116095       0.02575890      -3.23470338
H        4.16336168      -2.19834112      -2.10296739
H        2.55607132      -2.23749905      -0.25534132
