12
Properties=species:S:1:pos:R:3 -1273.2195113606413=T 8.714454=T 9.17068=T -9.9569=T -7.8279=T -10.248=T 0.8192=T -0.9293=T -0.007=T 10.25865=T 0.59173=T 4.27317749=T 6.4836866882=T 0.254031595=T pbc="F F F"
O        2.66525924      -0.98715010      -1.23690745
C        2.16373183      -0.09720900      -0.33407099
O        1.00063002      -0.13052175      -0.00351046
C        3.16142475       0.95836477       0.17503296
C        4.59615271       0.51776424       0.16965540
C        5.50300621       0.88396037      -0.74744645
H        3.62557609      -0.80415798      -1.33953750
H        2.82356159       1.24191580       1.18066029
H        3.02720100       1.83976622      -0.47304556
H        4.89157939      -0.17957756       0.96126794
H        5.25445223       1.58606692      -1.54805447
H        6.52638492       0.50733807      -0.71832370
