16
Properties=species:S:1:pos:R:3 -1532.0637847950516=T 11.025255=T 11.69412=T -9.4073=T -7.3628=T -10.519=T 1.1421=T -0.5329=T 0.357=T 10.04045=T 0.27264=T 5.3685690028=T 6.379017707=T 0.235213387=T pbc="F F F"
C        1.77237921      -0.58937797       0.47499580
O        3.11987682      -0.31627764       0.06706262
N        3.35493875       1.06320510       0.17707386
C        4.53598370       1.39648560      -0.18801848
C        4.91802036       2.84997079      -0.10814281
C        5.44497132       3.36545298      -1.45080469
O        3.83799621       3.66522023       0.33097137
H        1.65892192      -1.67580722       0.37982851
H        1.05123378      -0.07832926      -0.18072148
H        1.60787322      -0.28509044       1.51953716
H        5.26959755       0.66112709      -0.54338692
H        5.74336644       2.91994514       0.63319257
H        4.66814312       3.28082201      -2.22308665
H        6.33333490       2.80138351      -1.77044695
H        5.72261311       4.42248732      -1.34754463
H        3.11239959       3.05014277       0.56508071
