10
Properties=species:S:1:pos:R:3 -1145.6191015311517=T 9.895651=T 9.8712=T -9.8157=T -7.6829=T -9.42=T -0.5874=T -2.3311=T -1.081=T 9.02877=T 1.66585=T 3.4124418808=T 11.5111206106=T 0.428472361=T pbc="F F F"
C        0.93093948      -0.02060994      -0.04384457
C        2.28271326       0.04049042      -0.00324781
C        3.02932629      -1.25958265       0.01831138
O        4.23806860      -1.37753482       0.05449191
C        3.02199602       1.25340727       0.01967905
C        3.69549795       2.26439030       0.04053879
H        0.31092626       0.87446895      -0.06185656
H        0.43210120      -0.99166492      -0.05935493
H        2.34946028      -2.14994910      -0.00257042
H        4.28703066       3.15686450       0.05883315
