18
Properties=species:S:1:pos:R:3 -1744.2235032477702=T 11.320542=T 12.97453=T -9.4741=T -7.1264=T -10.824=T 0.8645=T -0.1005=T 2.761=T 10.16984=T -2.49804=T 8.6902655302=T 10.873262235=T 0.336120836=T pbc="F F F"
C        0.86818884      -0.24996579      -0.09867962
C        2.36815346      -0.21890565      -0.22187759
O        2.91261370      -0.25357482      -1.56219201
C        3.10735856       0.93754325      -0.76427057
C        4.52420677       1.27083179      -0.36564899
C        4.58892797       2.28113623       0.78328981
N        5.98225150       2.67531670       1.03961716
H        0.55915987       0.03802274       0.91755648
H        0.48449146      -1.26207500      -0.29377832
H        0.40297108       0.43828218      -0.81723735
H        2.91420158      -0.86418733       0.48107041
H        2.50307014       1.79068345      -1.10640220
H        5.06422008       1.68653810      -1.23171110
H        5.04104196       0.33844690      -0.08287046
H        4.06716811       1.85752656       1.66655322
H        4.03510308       3.19134329       0.49756548
H        6.51329612       1.86839931       1.37923190
H        6.01579571       3.37163809       1.78743372
