20
Properties=species:S:1:pos:R:3 -1884.707008225972=T 12.129303=T 13.71633=T -9.2461=T -6.8975=T -10.541=T 0.9988=T 0.0662=T 3.193=T 10.80404=T -2.98515=T 8.724398876=T 11.2763779168=T 0.167871524=T pbc="F F F"
C        0.95087725      -0.13986365      -0.03146150
C        2.47647607      -0.03326860       0.00451428
C        2.95060407       1.41225034       0.00645218
O        4.37388510       1.44248403       0.06215532
C        4.88793013       2.77445854       0.04943671
C        6.40391794       2.70445760       0.03667595
N        6.87523527       2.11179620      -1.22157364
H        0.62885690      -1.19020748      -0.03819473
H        0.53494504       0.34070580      -0.93010464
H        0.49356490       0.34212817       0.84608001
H        2.91528632      -0.54696748      -0.86577022
H        2.87310427      -0.53499906       0.90148483
H        2.52721589       1.95410914       0.87856644
H        2.59652607       1.93533204      -0.90622730
H        4.53865016       3.32654446       0.94519279
H        4.53142737       3.30874141      -0.85345961
H        6.73248768       2.16561151       0.94869430
H        6.79001857       3.73413037       0.10756777
H        6.50061796       1.16174057      -1.29244844
H        7.89323304       2.02115608      -1.20498048
