15
Properties=species:S:1:pos:R:3 -1478.3681651350912=T 9.607294=T 10.32723=T -9.5261=T -7.4473=T -10.614=T 0.7296=T -0.2628=T 0.371=T 9.92924=T 0.18294=T 4.3378113918=T 6.233210171=T 0.18287806=T pbc="F F F"
C        3.34065485      -2.16919540      -0.61241755
C        2.46319530      -0.93601267      -0.39257319
C        3.24752679       0.37740531      -0.27707842
N        3.97783909       0.73994438      -1.48934268
C        3.48141409       1.60187727      -2.42550101
O        2.39834154       2.17415531      -2.35991401
H        2.73395952      -3.08456838      -0.65341800
H        4.07184443      -2.29228164       0.20234006
H        3.89650002      -2.10687198      -1.56031470
H        1.87870539      -1.05572187       0.53445708
H        1.73391337      -0.83503718      -1.21165997
H        3.96829316       0.32015360       0.55457971
H        2.55801851       1.20781754      -0.07288690
H        4.88180676       0.31610424      -1.67481152
H        4.19056717       1.74140147      -3.27503891
