13
Properties=species:S:1:pos:R:3 -1406.2785624201877=T 10.110402=T 11.42505=T -10.3534=T -7.8998=T -10.152=T 1.5985=T -0.097=T 0.034=T 10.43999=T 0.63658=T 4.4081238524=T 10.8596361736=T 0.700539537=T pbc="F F F"
C        2.19340442      -1.28326343      -0.45369181
O        3.46824772      -0.62319041      -0.26662057
C        3.39926924       0.73637066      -0.20775899
O        2.37522417       1.37621215      -0.29945228
C        4.81307138       1.29042834      -0.01173124
C        4.88384682       2.73794624       0.07770002
C        4.96639895       3.94453561       0.15331506
H        2.42422913      -2.35213565      -0.49445663
H        1.72330543      -0.94985457      -1.38767518
H        1.52158741      -1.06181105       0.38556572
H        5.43258996       0.92081212      -0.84548902
H        5.23103302       0.82234460       0.89467890
H        5.02747235       5.01156538       0.21741600
