17
Properties=species:S:1:pos:R:3 -1746.31020826991=T 10.820505=T 11.93389=T -9.7373=T -7.5047=T -10.741=T 0.9323=T -0.027=T 2.928=T 10.37738=T -2.66413=T 8.7670252628=T 11.223522685=T 0.210347087=T pbc="F F F"
O        1.17277779       0.00803050       0.56067209
C        2.54928161       0.03713095       0.13473150
C        2.80258931      -1.29720726      -0.59106310
C        2.45962283      -1.03687993      -2.05897857
C        3.51856704      -0.38413133      -2.91634615
C        2.44984398       0.46879455      -2.27286426
C        2.79206161       1.12734655      -0.93538736
H        0.95516294       0.88849851       0.91274741
H        3.20875846       0.16500269       1.01397478
H        2.17144245      -2.07926953      -0.14787256
H        3.85269162      -1.60763094      -0.46759331
H        1.71509492      -1.66725620      -2.54605536
H        4.53456369      -0.31988368      -2.51615579
H        3.46726388      -0.53658092      -3.99552841
H        1.69937156       0.93123859      -2.91479698
H        3.84251286       1.46368622      -0.90494628
H        2.16925345       2.01395123      -0.74033765
