16
Properties=species:S:1:pos:R:3 -1573.4022697524329=T 9.854198=T 10.93889=T -10.2506=T -7.8067=T -11.716=T 0.9957=T -0.0044=T 3.017=T 11.5324=T -2.7604=T 9.7194609176=T 10.4415677802=T 0.120525819=T pbc="F F F"
O        2.26934574      -0.40448344      -1.39371139
C        2.36026429       0.03712222      -0.03022860
C        3.12483143       1.34185149       0.00237481
C        2.45187449       2.63319007      -0.54251637
C        3.08422718       3.41275698       0.64161711
C        3.28661078       2.05750881       1.37281451
H        1.74966259      -1.22522554      -1.41003476
H        2.88208608      -0.71484640       0.59408726
H        1.35134827       0.19270748       0.40090207
H        4.10762869       1.19420482      -0.47430804
H        1.35634701       2.57145128      -0.44893175
H        2.70004512       2.94782595      -1.56439631
H        4.04645127       3.86465450       0.36019529
H        2.47162004       4.17570554       1.14086808
H        4.22194231       1.90035035       1.92761056
H        2.43919470       1.83272589       2.03998751
