18
Properties=species:S:1:pos:R:3 -1745.289384926203=T 11.292069=T 12.79464=T -9.315=T -7.2069=T -10.927=T 0.9237=T -0.044=T 2.73=T 10.30592=T -2.3999=T 8.555343965=T 9.3947415836=T 0.136596755=T pbc="F F F"
C        3.02320427      -1.16528377      -0.43255865
C        2.41993874       0.09083777       0.19317566
O        1.81647425      -0.19453503       1.46983115
C        3.42771324       1.21879816       0.29779925
N        3.72614434       2.07155639      -0.88007225
C        2.98477208       2.63582080       0.27870714
C        3.68543355       3.71288968       1.06702154
H        3.43188129      -0.95255379      -1.43113093
H        2.26426229      -1.95388844      -0.52110969
H        3.85113118      -1.54631267       0.18735672
H        1.57637553       0.44077627      -0.42904770
H        2.49646931      -0.61326169       2.02807163
H        4.32497152       0.97281792       0.88243028
H        3.06099150       1.84574945      -1.62981417
H        1.90579087       2.78036650       0.14803049
H        4.76109300       3.50006366       1.13609657
H        3.27400276       3.78006782       2.08523117
H        3.56628028       4.69461097       0.58479180
