17
Properties=species:S:1:pos:R:3 -1591.245213453502=T 10.00119=T 10.96999=T -9.2421=T -6.9155=T -10.642=T 0.8862=T -0.1123=T 2.908=T 10.00699=T -2.62228=T 8.6933775788=T 10.4525653384=T 0.083799048=T pbc="F F F"
C        1.25784607      -0.26985782       0.46739813
C        2.51341443       0.20563740      -0.27067078
C        2.59171663      -0.36565366      -1.69451097
N        2.73759423      -1.83328157      -1.67181973
C        2.57565865       1.73846906      -0.28455523
O        3.78341889       2.27953232      -0.83898728
H        1.27119306       0.02914430       1.52574168
H        1.17835454      -1.36291534       0.41062357
H        0.35196673       0.15774543       0.00784337
H        3.40205665      -0.15687747       0.28629859
H        3.39796618       0.15829245      -2.24024607
H        1.64630906      -0.13272716      -2.21532212
H        3.68557348      -2.07617354      -1.37043095
H        2.64455813      -2.20323444      -2.62023105
H        2.41008487       2.12192176       0.73991363
H        1.76346714       2.13804465      -0.91466181
H        4.50814125       2.06536365      -0.22620298
