12
Properties=species:S:1:pos:R:3 -1268.3754214955745=T 11.270437=T 11.99621=T -8.7386=T -6.8718=T -9.313=T 0.6883=T -0.2196=T 0.016=T 8.57898=T 0.58539=T 4.2261372016=T 11.0770084288=T 0.412932931=T pbc="F F F"
C        0.91618352      -0.03837965      -0.00292776
C        2.40197703       0.05743664      -0.00354660
C        3.26056847       1.15324070      -0.00220948
Cl       2.78386999       2.82245470       0.00169715
C        4.57508796       0.63760413      -0.00456093
N        4.56097614      -0.70018505      -0.00707382
N        3.24307973      -1.01922359      -0.00653567
H        0.48711952       0.97070880       0.00989210
H        0.54239625      -0.57571662       0.88140471
H        0.54015234      -0.55380656      -0.89934078
H        5.51429699       1.18211019      -0.00432066
H        2.97895205      -1.99940370      -0.00802826
