12
Properties=species:S:1:pos:R:3 -1212.9822849285688=T 8.327503=T 8.44293=T -8.7996=T -6.5109=T -8.961=T 0.966=T 0.0096=T 1.398=T 8.5741=T -0.80932=T 6.0598033514=T 0.266251044=T pbc="F F F"
C       -0.37679571       1.19394500       0.09787655
N       -1.25153044      -0.00130563      -0.02257907
C       -0.37581365      -1.19717085       0.08389639
C        1.03259752      -0.66925075      -0.05245539
C        1.03205363       0.66881359      -0.04460255
H       -0.50927977       1.67963420       1.08496993
H       -0.63928876       1.95151750      -0.65881229
H       -1.66495044       0.00396372      -0.95503961
H       -0.63772837      -1.94609226      -0.68155320
H       -0.50787730      -1.69445913       1.06525988
H        1.91459142      -1.30943575      -0.08822883
H        1.91353186       1.31008036      -0.07288181
