13
Properties=species:S:1:pos:R:3 -1330.303322655549=T 8.784155=T 9.71821=T -10.8049=T -8.457=T -11.786=T 0.8234=T -0.3109=T 1.345=T 11.36017=T -0.95443=T 5.3601379548=T 13.0106940848=T 0.19927648=T pbc="F F F"
C        0.95691550       0.00383308       0.03216332
C        2.49471213      -0.02661813       0.00840852
C        3.03889974      -0.76993764      -1.23772072
O        4.45162662      -0.89757963      -1.24534470
C        3.06165556       1.32384197       0.04060036
N        3.54473245       2.38613973       0.01280505
H        0.58747040       0.52558072       0.92337651
H        0.56641413      -1.02259187       0.04532106
H        0.56049195       0.51733317      -0.85426734
H        2.87322729      -0.55418054       0.90024147
H        2.66471505      -0.26706730      -2.14864125
H        2.63871315      -1.79430349      -1.22518104
H        4.83549602      -0.00706008      -1.34976125
