15
Properties=species:S:1:pos:R:3 -1557.7512207597408=T 10.565742=T 11.32297=T -9.6998=T -7.5638=T -10.036=T 0.536=T -1.2343=T -0.195=T 9.83604=T 0.91377=T 3.7647852956=T 6.730518017=T 0.277515752=T pbc="F F F"
C        2.58760759      -1.11667096      -0.72327268
C        2.54059132      -0.05390617       0.33944509
O        1.91170169      -0.18200089       1.38352724
C        3.31580451       1.26185869       0.11345689
O        3.13880019       2.10618563       1.23179992
C        4.78007151       1.00496275      -0.14108869
C        5.39700671       1.22656048      -1.30629436
H        2.55546600      -0.68132312      -1.73119502
H        1.76493599      -1.82557777      -0.57917381
H        3.54340622      -1.65677705      -0.64320849
H        2.87277209       1.72376113      -0.79491363
H        2.54305359       1.59318611       1.82849663
H        5.33668708       0.63235535       0.72513123
H        4.86022562       1.62866364      -2.16938935
H        6.46089989       1.02379220      -1.43507100
