19
Properties=species:S:1:pos:R:3 -1864.938880912547=T 12.14396=T 13.0838=T -9.4199=T -7.3758=T -9.65=T 1.4743=T -0.1137=T 1.25=T 9.06943=T -0.66725=T 6.6702484224=T 0.409461339=T pbc="F F F"
C        3.04448346      -0.43912647       1.12732005
O        2.65966133       0.33208412      -0.00776065
C        2.99433323       1.75007233       0.05021608
C        2.43540508       2.30359107      -1.26722158
C        2.31587624       2.43171202       1.24297438
C        4.50441905       1.88729875       0.04055583
C        5.26402065       2.57449705       0.90037623
H        2.87487717      -1.48849610       0.85275183
H        2.43340974      -0.20750498       2.01779341
H        4.11005209      -0.30423723       1.38268998
H        2.89318534       1.78522997      -2.12069378
H        2.64270784       3.37843525      -1.35330066
H        1.34903845       2.14132714      -1.30662301
H        2.71059996       2.07843758       2.20525612
H        1.23674675       2.22661836       1.21300188
H        2.45933815       3.52013593       1.19868604
H        4.98228494       1.34481686      -0.78370693
H        4.83891671       3.12990688       1.73888702
H        6.34875382       2.61129145       0.78731776
