17
Properties=species:S:1:pos:R:3 -1667.9256542983012=T 10.733107=T 12.19638=T -9.565=T -7.4038=T -11.157=T 0.8994=T -0.0301=T 2.954=T 11.263=T -2.66618=T 8.818752222=T 11.545824292=T 0.176138469=T pbc="F F F"
C        1.70558477      -0.38527465      -0.94456382
O        1.62396799       0.78471414      -0.13036364
C        2.87316118       1.40585927       0.01699751
C        3.35846856       2.37471008      -1.03882697
C        2.86372455       2.87073060       0.31776228
C        3.83598024       3.45989044       1.30884687
O        4.14346721       4.83280357       1.03637111
H        0.69116166      -0.79780337      -1.00898237
H        2.37592316      -1.14133380      -0.49588940
H        2.07012024      -0.14603941      -1.95942386
H        3.63158916       0.78377607       0.51255049
H        2.70477456       2.54425787      -1.89486827
H        4.42937582       2.40603769      -1.25307064
H        1.87240068       3.33022615       0.30510430
H        4.75911276       2.84788073       1.33592258
H        3.40553530       3.45268643       2.32164548
H        4.39005216       4.88711820       0.09531834
