14
Properties=species:S:1:pos:R:3 -1437.8675950847141=T 9.008272=T 9.81903=T -9.1551=T -6.9771=T -10.738=T 1.0079=T 0.1034=T 3.077=T 10.39623=T -2.8042=T 8.625334062=T 11.0821662464=T 0.163607016=T pbc="F F F"
C        0.80878358       1.32318006      -0.61301559
C       -0.36153655       1.02796411       0.31144576
C       -1.39645793       0.00901212      -0.17122939
C       -0.69648358      -1.33571217       0.09647653
O        0.72249340      -1.07588764       0.01556327
C        0.92796230       0.26018885       0.44752596
H        0.74180862       0.97729521      -1.64607548
H        1.34860009       2.25989161      -0.46407018
H       -0.65233262       1.77654729       1.04826450
H       -2.33831240       0.09347595       0.38905355
H       -1.62517529       0.13901248      -1.24023106
H       -0.94784419      -1.71096369       1.10691061
H       -0.92936428      -2.11800579      -0.63931717
H        1.60996883       0.36922161       1.29397870
