15
Properties=species:S:1:pos:R:3 -1567.8904217047452=T 11.633177=T 13.14196=T -8.9296=T -6.8095=T -9.413=T 0.9731=T 0.0096=T 1.173=T 8.99234=T -0.66508=T 4.3646543608=T 10.719891553=T 0.502894332=T pbc="F F F"
C        0.99547936      -0.04564677       0.23392158
C        2.50186909      -0.02121384      -0.02036943
O        2.71413374      -0.67748833      -1.29588035
C        3.98364428      -1.10266474      -1.57646828
C        5.10519876      -0.93830215      -0.86118548
C        3.03632106       1.34298483      -0.01322567
C        3.44622564       2.48457831       0.01166484
H        0.77281542       0.42807381       1.19801085
H        0.64087832      -1.08397060       0.25126223
H        0.46999830       0.50240269      -0.55816255
H        3.02137899      -0.61376318       0.75629214
H        3.97656042      -1.64092421      -2.52687887
H        5.15801754      -0.37181184       0.06637666
H        6.02766551      -1.36980443      -1.24430192
H        3.81473357       3.49018044       0.02026425
