14
Properties=species:S:1:pos:R:3 -1461.2750687969071=T 10.781344=T 10.9843=T -8.714=T -6.7015=T -9.023=T 0.1705=T -1.4649=T -0.268=T 8.45372=T 0.83769=T 4.4574578818=T 6.7526743152=T 0.314091336=T pbc="F F F"
C        0.91994819       0.02053350       0.14059585
C        2.40443365       0.08459987       0.00273068
C        3.16045121       1.19996681       0.07442494
C        4.60231639       1.06197896      -0.01133571
N        5.25504551      -0.04212389       0.20026114
O        4.44864772      -1.17897573       0.41296160
C        3.18297185      -1.17197657      -0.28804788
H        0.63544165      -0.62568585       0.98703444
H        0.45845571      -0.42221046      -0.75832440
H        0.48234741       1.01478566       0.29870473
H        2.73168876       2.18832014       0.25091956
H        5.24856290       1.93163781      -0.15265436
H        2.67259276      -2.07695105       0.06959702
H        3.37185629      -1.27998920      -1.37696763
