16
Properties=species:S:1:pos:R:3 -1623.8674417884959=T 11.147258=T 12.0632=T -9.0973=T -6.9198=T -9.233=T 1.3917=T 0.1=T 1.341=T 8.74091=T -0.75473=T 6.4231815202=T 0.422508789=T pbc="F F F"
C        0.98699084      -0.02143830      -0.04931465
C        2.49641094      -0.07847196      -0.04920664
C        3.24757376      -0.74888245      -1.17388596
C        3.30680119       0.75507283      -1.04013919
C        4.52492705       1.47561029      -0.59708936
C        5.75765174       0.96445490      -0.47464263
H        0.61464567       0.83194446       0.53819380
H        0.55497733      -0.93866208       0.38025689
H        0.59689969       0.08047023      -1.07343450
H        2.96273939      -0.17394587       0.93531947
H        2.66365582      -1.15397205      -2.00217925
H        4.13768635      -1.32716483      -0.92472338
H        2.68603336       1.31582321      -1.74659499
H        4.36873342       2.52876709      -0.33429974
H        5.98335166      -0.07125087      -0.73803896
H        6.58482178       1.57219540      -0.10633090
