16
Properties=species:S:1:pos:R:3 -1573.7126238921155=T 9.923323=T 11.3897=T -9.7554=T -7.6679=T -11.768=T 0.9789=T 0.1074=T 2.792=T 10.90925=T -2.54627=T 9.199699207=T 10.8362896098=T 0.317335798=T pbc="F F F"
C        3.13242350      -1.25175579      -0.33534163
C        2.44006283      -0.01589146       0.24761881
C        3.39850372       1.12593044       0.47986254
O        3.83070613       1.86253508      -0.69240567
C        3.02809529       2.54135102       0.30350510
C        3.69077657       3.66099098       1.06057371
H        2.41617748      -2.06928448      -0.49700005
H        3.91835664      -1.62357007       0.33947110
H        3.60189861      -1.01358352      -1.30020252
H        1.96189440      -0.26851641       1.21001350
H        1.64056629       0.32586612      -0.42869503
H        4.22024704       0.91315897       1.18021367
H        2.00162041       2.74229856      -0.03453486
H        4.70173852       3.37288285       1.37851399
H        3.10156569       3.92368112       1.95221506
H        3.76994688       4.56017659       0.43224228
