15
Properties=species:S:1:pos:R:3 -1513.864227269314=T 10.289635=T 10.94154=T -9.1412=T -7.0787=T -10.409=T 0.7295=T -0.2466=T 0.66=T 9.61185=T 0.05005=T 4.366600941=T 6.4737926054=T 0.121095383=T pbc="F F F"
C        0.97868663      -0.02158825       0.17900837
C        2.47494997       0.05925158      -0.10496594
N        2.71279529       0.02800502      -1.53345690
C        3.24408891       1.10557849       0.80433971
N        3.89433286      -0.03867962       1.45502404
C        3.29427242      -1.02086990       0.69457916
O        3.38071195      -2.23176621       0.68916854
H        0.77668268      -0.02212931       1.25850052
H        0.57338028      -0.94372441      -0.25695714
H        0.45262322       0.83716748      -0.26740961
H        3.70925216       0.08408165      -1.75286742
H        2.24149235       0.80605512      -2.00036925
H        2.61180034       1.70833890       1.47458235
H        3.93720879       1.75521871       0.24809248
H        4.50741216      -0.10413925       2.26604110
