12
Properties=species:S:1:pos:R:3 -1222.2557413766694=T 9.242056=T 10.47192=T -9.7949=T -7.4164=T -9.48=T 0.9142=T -0.4814=T 2.073=T 9.10754=T -1.67564=T 4.1783529972=T 10.0465731814=T 0.543822906=T pbc="F F F"
O        0.96304779      -0.03512127      -0.04596491
C        2.39984693      -0.02529351      -0.00039272
C        2.87869089       1.35072238       0.00525315
C        3.31352003       2.48592445       0.02774292
C        3.78831976       3.86651944      -0.01302699
O        2.75941969       4.80844643      -0.34899737
H        0.68475101      -0.96754855      -0.03976538
H        2.82654249      -0.55477481      -0.87382177
H        2.77203976      -0.53377261       0.90977640
H        4.63732825       3.93735519      -0.72020616
H        4.16280049       4.17357715       0.97594461
H        2.24644292       4.42436572      -1.08261179
