16
Properties=species:S:1:pos:R:3 -1644.079326650161=T 12.720245=T 13.22423=T -8.914=T -6.8911=T -8.736=T 0.7396=T -0.8467=T 0.619=T 8.21864=T -0.06513=T 4.0452540262=T 6.0528601354=T 0.423033282=T pbc="F F F"
C        1.12988400      -0.14967288       0.36884642
C        2.56037041      -0.02890717      -0.18706240
N        2.74476472      -0.65082947      -1.50429189
C        3.02101983       1.43286919      -0.21137899
C        3.52926180       2.02217572      -1.31271295
C        2.90576939       2.15121039       1.01562240
C        2.81272706       2.72581990       2.08513476
H        1.03978035       0.30839358       1.36372798
H        0.84345977      -1.20833657       0.44678630
H        0.41713845       0.35380825      -0.30306254
H        3.24178823      -0.55295529       0.50758841
H        1.99486498      -0.34403916      -2.13285445
H        2.63868245      -1.66327755      -1.41252495
H        3.65623538       1.44730050      -2.22929198
H        3.84651055       3.06416556      -1.29264731
H        2.73671265       3.24837497       3.01654118
