19
Properties=species:S:1:pos:R:3 -1910.7316683079716=T 12.895311=T 14.24815=T -9.8495=T -7.567=T -9.684=T 0.8626=T -0.0346=T 2.366=T 9.21595=T -1.9531=T 4.32649147=T 10.5344332942=T 0.38678579=T pbc="F F F"
C        0.99075653      -0.21696555       0.01871001
C        2.50884011      -0.02415026       0.01451109
C        3.00860742       1.45439939       0.00010336
C        2.52948247       2.19227735      -1.27200617
C        2.52980318       2.21681492       1.25777120
C        4.47792159       1.42462897       0.00016033
C        5.69253491       1.39586653       0.00024674
H        0.75162210      -1.28997500       0.02810565
H        0.51401352       0.21370044      -0.87350662
H        0.51714153       0.22860376       0.90524124
H        2.94221525      -0.53116538      -0.86251221
H        2.94490464      -0.51492433       0.89940245
H        2.85187426       1.66033988      -2.17806138
H        2.94700970       3.20776644      -1.30547937
H        1.43342510       2.27295572      -1.28302242
H        2.85142506       1.70197075       2.17392089
H        1.43381906       2.29868000       1.26687444
H        2.94825547       3.23237117       1.27197559
H        6.76300810       1.37033520       0.00034518
