16
Properties=species:S:1:pos:R:3 -1628.5980620967791=T 10.952345=T 11.93317=T -9.0283=T -7.0624=T -10.117=T 0.7371=T -0.2099=T 0.514=T 9.71331=T 0.12182=T 4.399209259=T 12.8605594374=T 0.241076356=T pbc="F F F"
C        0.97063092      -0.01122759       0.28732049
C        2.44486251       0.02825303      -0.07832279
C        3.32837259       1.06797016       0.68159321
N        4.15381160      -0.04696479       1.16152784
C        3.34516345      -1.09881921       0.52407921
C        5.20983065      -0.06269346       2.01005563
O        5.72144654       0.93780605       2.50943767
H        0.46691305      -0.87007220      -0.18051226
H        0.45627101       0.90090967      -0.04946929
H        0.83548460      -0.09113802       1.37677466
H        2.57063599       0.10594031      -1.16726565
H        2.81746888       1.60917529       1.49425192
H        3.88041963       1.78961649       0.06171863
H        3.89671554      -1.71203699      -0.20486823
H        2.82762467      -1.75768546       1.24097336
H        5.57228837      -1.10195328       2.20099560
