16
Properties=species:S:1:pos:R:3 -1586.451049427832=T 13.604515=T 13.39936=T -8.3504=T -6.4506=T -9.075=T 0.4977=T -1.0669=T -0.334=T 8.50764=T 0.9039=T 5.0169199096=T 0.666563451=T pbc="F F F"
C        1.86154835      -0.73579986      -0.68306862
O        3.20742693      -0.53606168      -0.23462085
N        3.50918059       0.83417456      -0.31274535
C        4.72126659       1.05786215       0.08397654
C        5.23989605       2.40490927       0.08494992
C        6.49199670       2.71554204       0.48275143
C        7.06850237       4.09337570       0.49885296
H        1.68573146      -1.81514373      -0.59919017
H        1.74462918      -0.41558516      -1.72944064
H        1.15015806      -0.18790218      -0.04683469
H        5.36064236       0.22925208       0.42112581
H        4.55771334       3.18811017      -0.26049428
H        7.14763900       1.90492903       0.82240901
H        6.34586614       4.84096113       0.14482599
H        7.96754512       4.15430433      -0.13607562
H        7.38951777       4.37705216       1.51449855
