17
Properties=species:S:1:pos:R:3 -1637.3818667828484=T 11.130599=T 12.07303=T -8.8934=T -6.8864=T -10.29=T 0.7934=T -0.1524=T 0.45=T 9.69493=T 0.19239=T 4.324817659=T 8.6112864482=T 0.138309142=T pbc="F F F"
C        0.73576907       0.59926759      -1.43871947
C        1.06408637      -0.10732653      -0.13056550
N        2.53147711      -0.28135730      -0.01904171
N        2.88631651      -0.81227341       1.24335201
C        3.34702119       0.02211954       2.23749136
C        3.91088160      -0.67783816       3.45765258
O        3.29607086       1.24945556       2.12816177
H       -0.35163336       0.69777600      -1.55738942
H        1.13137697       0.03981173      -2.29793736
H        1.16531379       1.61232719      -1.46113432
H        0.61040170      -1.11059610      -0.11381041
H        0.65904631       0.45791701       0.72880854
H        2.95274195       0.65912028      -0.02223745
H        3.20553192      -1.77836473       1.22227142
H        3.38103338      -0.30984109       4.34574941
H        4.96866157      -0.40388465       3.56828591
H        3.82323307      -1.77155292       3.41552265
