14
Properties=species:S:1:pos:R:3 -1452.6730229907964=T 9.497578=T 9.95173=T -9.2791=T -6.9756=T -9.074=T 0.908=T -0.0677=T 1.387=T 8.57923=T -0.78044=T 6.179772205=T 0.318193719=T pbc="F F F"
O        1.02325136      -0.06204549       0.05336252
C        2.45980785       0.00823587       0.00013561
C        2.93178228      -1.22350642      -0.80546479
C        3.26374143      -0.66609353      -2.16561395
C        3.27261072       0.67394810      -2.17022661
C        2.95682666       1.23809056      -0.80819763
H        0.70592262       0.73541532       0.51144368
H        2.86847634       0.00579283       1.02616945
H        2.13286303      -1.98123248      -0.82528436
H        3.81254983      -1.69744883      -0.33881756
H        3.48457993      -1.29750485      -3.02757206
H        3.49693045       1.29816389      -3.03656454
H        3.85420861       1.68553067      -0.34406167
H        2.18876889       2.02972436      -0.83459810
