13
Properties=species:S:1:pos:R:3 -1453.0546977665915=T 12.906577=T 13.25059=T -9.4904=T -7.5656=T -9.382=T -0.673=T -2.3286=T -0.93=T 9.33634=T 1.56025=T 3.2466478016=T 5.9877674854=T 0.387925543=T pbc="F F F"
C        0.96451598      -0.02306797       0.00168438
C        2.46861256      -0.07363332       0.16359829
O        3.08888770      -1.11846634       0.34892010
C        3.15516171       1.19865018       0.08896191
C        3.72816164       2.27860133       0.02940020
C        4.45927413       3.48743316      -0.03072794
C        3.89496945       4.70645230      -0.14669275
H        0.52395518       0.60990355       0.78597897
H        0.55384899      -1.03693875       0.06238783
H        0.70441852       0.43435405      -0.96412850
H        5.54892412       3.39716304       0.02549917
H        2.81279820       4.82816742      -0.20303162
H        4.51176182       5.60410136      -0.18426003
