19
Properties=species:S:1:pos:R:3 -1882.6248279387496=T 11.549427=T 12.86176=T -9.4106=T -7.2631=T -11.372=T 0.9211=T 0.0052=T 3.087=T 10.67542=T -2.78777=T 9.1575315684=T 11.7654530924=T 0.127377831=T pbc="F F F"
C        2.01724452      -0.26229562      -1.50618649
O        2.20871013       0.17076734      -0.16642001
C        2.92659172       1.39971606      -0.07352344
C        2.14588084       2.66382062      -0.47837009
C        2.96476387       3.79360583       0.16490916
C        3.51273757       3.19596656       1.49480448
C        3.30302354       1.66446782       1.39095528
H        1.55235942      -1.25541106      -1.45840988
H        2.98089682      -0.34264028      -2.04525835
H        1.35334708       0.41400851      -2.07497655
H        3.84429103       1.32590606      -0.69696710
H        1.13863971       2.60148381      -0.03235486
H        2.03085231       2.78493074      -1.56484095
H        3.80073246       4.06983428      -0.49702103
H        2.37196016       4.70529137       0.32307378
H        4.57323064       3.45177197       1.63086280
H        2.97789959       3.60430828       2.36405317
H        4.18009220       1.08201870       1.70339435
H        2.45439638       1.33675901       2.01134573
