18
Properties=species:S:1:pos:R:3 -1823.7068810539636=T 11.713797=T 13.13518=T -11.4409=T -9.0402=T -11.771=T 0.75=T -0.2617=T 1.481=T 11.31468=T -1.08426=T 5.373677226=T 12.9120384246=T 0.144738622=T pbc="F F F"
C        0.93695945      -0.55184904       0.62975726
C        2.31017419      -0.42558081      -0.04084935
C        2.71559970      -1.74720616      -0.70553873
C        2.29950793       0.75186784      -1.03015077
C        3.65959989       1.07972442      -1.68160960
C        4.69143286       1.43075034      -0.70848074
N        5.50432407       1.71315658       0.07938449
H        0.65219611       0.37956860       1.14107812
H        0.93435381      -1.35958189       1.37575731
H        0.15506590      -0.78129308      -0.11252452
H        3.05255392      -0.19430350       0.74419923
H        2.02283335      -2.00602872      -1.52331133
H        2.69108638      -2.57061169       0.02284624
H        3.73388591      -1.71438197      -1.11929476
H        1.93489289       1.65415634      -0.51401399
H        1.58486182       0.54144009      -1.84418177
H        3.54943755       1.92552655      -2.37789451
H        4.02729426       0.22958607      -2.27695258
