17
Properties=species:S:1:pos:R:3 -1677.4280851493552=T 10.569401=T 12.19156=T -9.9492=T -7.7527=T -11.773=T 0.879=T -0.0351=T 2.539=T 11.0614=T -2.29475=T 9.1812996846=T 10.8658478722=T 0.250323792=T pbc="F F F"
C        1.63932255      -0.43598107       1.24047033
C        2.24064314       0.20614575      -0.01380542
C        3.21615069       1.30802936       0.32293280
O        3.59476829       2.20646994      -0.74428666
C        2.82065799       2.72826123       0.36976984
C        3.54108798       3.73999837       1.22153283
O        3.65969830       5.00479272       0.56408452
H        0.95138721      -1.24957118       0.97309851
H        1.07660801       0.29834496       1.83551732
H        2.42104093      -0.86217715       1.88699766
H        1.44942875       0.61834060      -0.65872024
H        2.76843016      -0.55656590      -0.60989235
H        4.06215808       1.00610353       0.95774818
H        1.78794707       2.98613251       0.10004024
H        4.53233431       3.34088424       1.50590151
H        2.96970068       3.93094506       2.14332468
H        4.13266584       4.84054705      -0.27240374
