12
Properties=species:S:1:pos:R:3 -1323.5056369405331=T 10.084768=T 11.21071=T -10.5963=T -8.2018=T -10.241=T 0.9334=T -0.5519=T 1.072=T 9.84165=T -0.72542=T 4.387988526=T 10.9035644134=T 0.318988554=T pbc="F F F"
O        0.98807326       0.03141729      -0.02261638
C        2.41504920       0.05402487       0.01932258
C        2.89941419      -0.69092799      -1.24390472
C        4.33954769      -0.89209091      -1.26737599
C        5.54117753      -1.05432298      -1.26492506
C        2.92698527       1.43642338       0.07379913
N        3.27987108       2.54533364       0.15215343
H        0.64835713       0.55869382       0.72211617
H        2.80125514      -0.47473895       0.91032425
H        2.56690421      -0.12921890      -2.13043685
H        2.37435149      -1.65869973      -1.25514198
H        6.60335381      -1.19124354      -1.27140459
