18
Properties=species:S:1:pos:R:3 -1789.7796851387059=T 12.642961=T 13.75862=T -8.7776=T -6.6719=T -9.247=T 1.2495=T 0.0237=T 1.325=T 8.7557=T -0.73686=T 6.4223012196=T 0.430406254=T pbc="F F F"
C        2.03651960      -0.72818091      -0.32213571
N        1.86448541       0.68351538       0.03243028
C        3.11815181       1.37539870       0.19146667
C        3.73708659       2.00530865      -1.03325971
C        3.12750182       2.88984245       0.02951958
C        3.93404041       3.73512289       0.94299347
C        5.23631768       4.02578167       0.82114552
H        1.05264294      -1.21424468      -0.37466436
H        2.67128713      -1.29972158       0.38611400
H        2.50029792      -0.79736823      -1.31733155
H        1.32609421       0.75365332       0.89970171
H        3.83569536       0.98193553       0.92932585
H        3.17958039       1.90976973      -1.96533902
H        4.82224838       1.97230117      -1.13054111
H        2.13910148       3.28767685      -0.21795486
H        3.38606407       4.14145441       1.80186943
H        5.83114743       3.66847944      -0.02259099
H        5.74893736       4.63855521       1.56362081
