17
Properties=species:S:1:pos:R:3 -1679.799003132887=T 11.114775=T 12.0847=T -8.9405=T -6.8583=T -9.353=T 0.8605=T -0.0419=T 1.141=T 8.76963=T -0.56505=T 6.2467618408=T 0.324331528=T pbc="F F F"
C        3.06753330       0.72139458      -2.02018758
O        4.12140069       1.21549105      -1.19199491
C        3.75750824       2.00727540      -0.13071726
C        2.50100078       2.32084453       0.22602041
C        4.99893118       2.48304833       0.59785186
C        5.72324123       1.33673084       1.31169103
O        5.88106357       3.18419552      -0.29522956
H        3.55140658       0.14884124      -2.81920346
H        2.48670342       1.55208310      -2.45290610
H        2.39354280       0.06371837      -1.44748603
H        1.61860274       1.95319957      -0.29352420
H        2.34410684       2.97704701       1.07963735
H        4.68231383       3.23469170       1.33592289
H        6.03036750       0.56366887       0.59275611
H        5.07020768       0.86850903       2.06234035
H        6.61891827       1.72675154       1.81287240
H        6.01729138       2.59800931      -1.06291332
