12
Properties=species:S:1:pos:R:3 -1339.8668198367996=T 13.323981=T 13.90216=T -9.0601=T -6.9897=T -8.65=T 0.6421=T -0.9503=T 0.894=T 8.25023=T -0.47841=T 3.1962226954=T 7.772930312=T 2.110824937=T pbc="F F F"
C        0.94927842       0.00745424      -0.02175928
C        2.17057631       0.00117802      -0.02385395
C        3.52842192      -0.00455545      -0.02455832
C        4.75268126      -0.00529351      -0.03157256
C        6.18333006      -0.03969426      -0.00671454
C        6.97680502      -0.76680558      -1.05494126
N        6.90942821       0.69994125      -1.08355638
H       -0.12085801       0.01306036      -0.02124573
H        6.62307803      -0.02524285       0.99607241
H        6.43527255      -1.26123291      -1.86331650
H        7.89370230      -1.26294243      -0.72614907
H        7.76415393       1.09635313      -0.67797482
