12
Properties=species:S:1:pos:R:3 -1243.2230024745666=T 8.865611=T 9.42978=T -9.4379=T -7.2238=T -9.924=T 0.7952=T -1.3174=T -0.12=T 10.22934=T 0.7285=T 3.6581821328=T 12.5548595558=T 0.365615825=T pbc="F F F"
C        3.05822523      -1.47512312       1.02837272
C        2.42045067      -0.52438577       0.33056099
O        2.95841445       0.57067378      -0.28565781
C        4.37091571       0.72340917      -0.17628282
C        4.76477125       1.98754206      -0.91493919
O        5.91131580       2.38000258      -0.98325056
H        2.47031926      -2.28428291       1.45619365
H        4.13345912      -1.48815096       1.19526162
H        1.33959410      -0.53464562       0.17794557
H        4.90254382      -0.13845746      -0.62054975
H        4.68527510       0.80605035       0.88058160
H        3.91305550       2.53212790      -1.39471603
