9
Properties=species:S:1:pos:R:3 -1083.3419675073878=T 11.403506=T 11.02258=T -9.8049=T -7.8183=T -9.276=T -0.77=T -2.4756=T -0.716=T 8.80686=T 1.14383=T 3.3809866326=T 10.757955255=T 1.399821819=T pbc="F F F"
C        0.94384935      -0.04644800       0.00000000
C        2.28906953       0.04326265       0.00000000
C        2.99896189       1.26157009       0.00000000
C        3.65418359       2.29671284       0.00000000
C        4.36786574       3.45491255       0.00000000
N        4.98372990       4.45654113       0.00000000
H        0.45471387      -1.01973467       0.00000000
H        0.31335524       0.84265736       0.00000000
H        2.89824089      -0.86627395       0.00000000
