17
Properties=species:S:1:pos:R:3 -1729.2793971371968=T 12.316269=T 13.11091=T -9.3217=T -7.1241=T -9.15=T 1.2822=T -0.2308=T 1.015=T 8.49102=T -0.52169=T 6.2486836238=T 0.628335592=T pbc="F F F"
O        0.68171019      -0.04644260      -0.05623877
C        2.10764685      -0.01336147      -0.12770878
C        2.62171387       1.39679034      -0.01165495
C        1.80676043       2.44557232       0.15969215
C        4.12953063       1.53627548      -0.10681025
C        4.86890842       0.87271264       1.02801902
C        5.80822180      -0.06988759       0.88931469
H        0.41026559      -0.97830772      -0.06383313
H        2.46646539      -0.43863768      -1.08841544
H        2.56265170      -0.62469468       0.67582186
H        0.72726936       2.31258229       0.22268207
H        2.20691495       3.45832669       0.23554814
H        4.37166086       2.61184069      -0.11605007
H        4.48845097       1.11668078      -1.06342781
H        4.59399153       1.21395211       2.03300431
H        6.10684534      -0.43564414      -0.09701201
H        6.31523211      -0.50242748       1.75314895
