12
Properties=species:S:1:pos:R:3 -1248.6823356278796=T 8.193195=T 8.96876=T -9.6086=T -7.5286=T -10.878=T 0.857=T -1.0342=T -0.102=T 9.90334=T 0.7726=T 3.741401536=T 7.8530624638=T 0.188624367=T pbc="F F F"
C        1.00112889      -0.25025179       0.14952706
C        2.31817278       0.15245707      -0.46844361
O        2.73849981      -0.31209552      -1.51976357
C        3.16198118       1.16239624       0.26710727
C        2.60956829       2.49256100       0.61917286
O        2.81015710       1.49707749       1.62622560
H        0.43025662       0.61773395       0.50708599
H        1.20174617      -0.86998629       1.03723041
H        0.41770107      -0.82598835      -0.57627862
H        4.23406580       1.08978088       0.05479254
H        1.56539070       2.72403160       0.38244222
H        3.29525158       3.34528372       0.64900184
