15
Properties=species:S:1:pos:R:3 -1474.321976994498=T 9.881249=T 10.48561=T -8.8189=T -6.5764=T -8.696=T 0.925=T 0.0248=T 1.502=T 8.15888=T -0.84809=T 6.0211445166=T 0.372067464=T pbc="F F F"
C        0.91895056      -0.12538015       0.00585500
C        2.42156030       0.00447102       0.00143048
C        3.12339724       1.15342316       0.00010310
C        2.47877079       2.51418706       0.00365861
C        4.62932777       1.15484146      -0.00468234
H        0.61793166      -1.18114116      -0.00688965
H        0.45662144       0.35476556      -0.87131264
H        0.46421524       0.33077618       0.89979919
H        2.98974202      -0.93179144      -0.00033911
H        1.38294484       2.46630440       0.00434091
H        2.79465549       3.09819101      -0.87715253
H        2.79548070       3.09340481       0.88737057
H        5.03821438       0.13551166      -0.00472755
H        5.02826313       1.68559578       0.87628216
H        5.02244445       1.68326064      -0.88968619
