15
Properties=species:S:1:pos:R:3 -1545.4075315143405=T 10.68415=T 12.0202=T -9.9654=T -7.8359=T -11.187=T 0.7519=T -0.2486=T 1.473=T 10.59988=T -1.06344=T 5.3703172054=T 11.1368936668=T 0.209403284=T pbc="F F F"
C        1.08949539       0.16013027       0.04768513
C        2.60281750      -0.07422274      -0.11692591
C        2.87935004      -0.86903666      -1.31955212
N        3.08289135      -1.48400248      -2.28984260
C        3.38389227       1.23577014      -0.16778186
C        3.79429628       1.92873987       1.08304329
N        4.78207021       1.17464509       0.28096178
H        0.90171898       0.71463511       0.97658020
H        0.54745576      -0.79267752       0.09004113
H        0.69056437       0.74316514      -0.79346324
H        2.98740022      -0.65116937       0.74128660
H        3.14355376       1.86854659      -1.02869248
H        3.56272313       1.47923997       2.05244901
H        3.81863788       3.02109723       1.07453236
H        5.36019287       1.81447936      -0.27144128
