18
Properties=species:S:1:pos:R:3 -1744.459573916042=T 11.187827=T 12.43554=T -8.7754=T -6.6738=T -10.246=T 0.8579=T -0.1278=T 2.961=T 9.54932=T -2.6773=T 8.1824808672=T 10.1540318476=T 0.144545774=T pbc="F F F"
C        0.93505394      -0.07748514       0.13120923
C        2.44311376       0.04096515       0.00826038
C        3.17715443       1.13204203       0.83315815
C        4.20303271       0.03135565       1.21359865
C        5.50095716       0.07497286       0.40987810
O        6.39525011       1.10359348       0.84755405
N        3.22240241      -0.99559499       0.75492116
H        0.56916748      -0.98380083      -0.37428680
H        0.43617923       0.78955561      -0.32852707
H        0.64237297      -0.13647448       1.18940698
H        2.72518306       0.10397495      -1.06052605
H        2.58333216       1.47653817       1.69044381
H        3.55341282       2.00552374       0.28108441
H        4.45321294      -0.04649329       2.28498567
H        5.27449918       0.17368467      -0.67073950
H        6.05215266      -0.86869271       0.54999637
H        5.93886039       1.95609430       0.73351714
H        3.62275260      -1.74013916       0.17589532
