13
Properties=species:S:1:pos:R:3 -1274.828429357936=T 8.696416=T 9.22291=T -9.669=T -7.3367=T -9.497=T 1.0609=T -0.1249=T 1.404=T 8.9759=T -0.86608=T 6.6913632382=T 0.448932768=T pbc="F F F"
O        2.79455259      -0.94255919      -1.19396780
C        2.37303749      -0.28332486       0.00942941
C        3.02037723       1.10087884       0.04735505
C        4.51772329       1.05567310       0.15490787
C        5.22941224       1.63100267       1.13086378
H        2.44602531      -1.84900859      -1.17844202
H        2.67849693      -0.86006326       0.90205485
H        1.27265661      -0.17264603       0.02964656
H        2.59631712       1.66504783       0.89330540
H        2.72902971       1.62830247      -0.87822068
H        5.03256005       0.49856861      -0.63421978
H        4.74538445       2.19390322       1.93407938
H        6.31805696       1.56392519       1.15999797
