16
Properties=species:S:1:pos:R:3 -1631.4071175659092=T 12.142569=T 13.22967=T -8.6013=T -6.6238=T -9.733=T 0.9538=T 0.0369=T 2.358=T 9.31617=T -1.89878=T 4.380735345=T 10.6150985858=T 0.406574833=T pbc="F F F"
C        1.03645298      -0.03457002       0.02970607
N        2.48406699       0.02328623       0.09317342
C        3.11562214       1.06160823       0.94275343
C        4.20948967       0.04025690       1.32440803
C        3.18103532      -1.03925192       0.87427418
C        3.62506414      -2.21171978       0.14027566
C        4.00748210      -3.19556017      -0.46025086
H        0.72971250      -0.92500983      -0.53787772
H        0.65604790       0.85077021      -0.50041788
H        0.55892340      -0.07383368       1.03416006
H        2.49173406       1.33542026       1.81946250
H        3.41264229       1.97630067       0.40879311
H        5.07396072       0.07385618       0.65146084
H        4.53596800       0.00090996       2.36895603
H        2.57489216      -1.36330529       1.74997259
H        4.34243563      -4.05890796      -0.99798946
