16
Properties=species:S:1:pos:R:3 -1573.0713889222984=T 9.804457=T 10.93477=T -9.3246=T -7.1438=T -11.332=T 0.936=T 0.0378=T 2.869=T 10.70704=T -2.61432=T 9.167958791=T 9.969900239=T 0.099626298=T pbc="F F F"
C        0.86958936       0.04775300       0.04939525
C        2.38750205      -0.01298976       0.02732712
C        3.18961572       0.96376193       0.90989706
O        4.01451753      -0.11622848       1.43354842
C        3.10706588      -1.10991788       0.85115628
C        3.83674759      -2.22703606       0.14178435
H        0.42761853      -0.81182803      -0.47673712
H        0.49876813       0.95970422      -0.44213063
H        0.48910845       0.04381725       1.08226335
H        2.76253762      -0.00682629      -1.00845728
H        2.58592825       1.43415944       1.70873196
H        3.79436942       1.73424671       0.40688650
H        2.44793012      -1.52076406       1.64254482
H        4.48452130      -1.82819935      -0.65191053
H        3.11657787      -2.92874044      -0.30609894
H        4.46173217      -2.78993220       0.85012939
