16
Properties=species:S:1:pos:R:3 -1537.485667441367=T 10.724492=T 11.60434=T -9.5429=T -7.4668=T -10.679=T 1.4397=T -0.3022=T 0.412=T 10.19033=T 0.19072=T 5.5198691186=T 6.600270724=T 0.19732143=T pbc="F F F"
O        0.80084822       0.15569308       0.16176567
C        2.21997045      -0.04336486       0.09631701
C        2.87880641       1.32819459       0.06442907
C        4.41558742       1.25611874       0.01715075
C        4.94064782       0.65745224      -1.25051317
N        5.69607903      -0.37762326      -1.20983214
O        6.08526170      -0.77535056      -2.51743607
H        0.37476529      -0.71740984       0.14950582
H        2.49725064      -0.61942728      -0.80577042
H        2.58099967      -0.60939401       0.97685356
H        2.56871700       1.88984237       0.95905277
H        2.49652331       1.88507494      -0.80682958
H        4.80823016       0.68047622       0.86920811
H        4.81379378       2.28101387       0.10889147
H        4.67006925       1.11531754      -2.21413588
H        6.64669985      -1.54873378      -2.32990695
