16
Properties=species:S:1:pos:R:3 -1566.680178030434=T 9.798634=T 10.6906=T -9.5053=T -7.2965=T -10.85=T 0.8577=T -0.1287=T 2.773=T 10.24046=T -2.50884=T 8.4718517926=T 10.8616571454=T 0.089142303=T pbc="F F F"
N        1.03839069      -0.04331941       0.61851648
C        2.34334682      -0.07983066      -0.05955772
C        3.26737989       1.03610147       0.49550493
O        4.39337593       0.38804729       1.12177056
C        3.89995289      -0.89671503       1.54572483
C        3.10901736      -1.37423403       0.33205593
O        3.96927858      -1.82747867      -0.71583950
H        0.39495905      -0.69818144       0.16648322
H        0.61606357       0.88312971       0.51643779
H        2.28319949      -0.03414400      -1.16232035
H        2.71449156       1.63326366       1.24501054
H        3.66513844       1.70606649      -0.27902458
H        4.76338818      -1.53129650       1.78406021
H        3.24215921      -0.79886729       2.42942171
H        2.41758718      -2.19906290       0.55518827
H        4.71111116      -1.19431870      -0.75688232
