18
Properties=species:S:1:pos:R:3 -1818.1711629702456=T 12.214873=T 13.12069=T -8.7918=T -6.5865=T -8.635=T 0.9036=T -0.1169=T 1.544=T 8.08353=T -0.84876=T 5.922625241=T 0.315233456=T pbc="F F F"
N        2.37092760      -0.44815800       1.48692793
C        2.54817993      -0.01227881       0.08411103
C        3.04520720       1.40095396       0.00370963
C        4.18516898       1.82390459      -0.56668860
C        4.37461931       3.31506525      -0.44536684
C        2.97704196       3.80727490       0.00925892
C        2.28189047       2.56192606       0.61183624
H        2.02337000      -1.41032404       1.49697126
H        1.63854002       0.11442793       1.92900100
H        1.61462511      -0.08672681      -0.51626278
H        3.28427037      -0.68187934      -0.38675031
H        4.92473372       1.16486577      -1.02684478
H        5.15450480       3.54317420       0.30480706
H        4.70281996       3.78870425      -1.38434202
H        2.41023514       4.14592842      -0.87128833
H        3.02729906       4.65124141       0.71090560
H        1.20300780       2.52935401       0.38309209
H        2.37204857       2.53840626       1.71371291
