16
Properties=species:S:1:pos:R:3 -1636.906745704752=T 11.851483=T 13.11108=T -8.9536=T -6.8226=T -9.824=T 0.9063=T -0.0301=T 2.305=T 9.47111=T -1.92107=T 4.3676176262=T 10.5218735124=T 0.383974041=T pbc="F F F"
C        3.49536769      -1.20116362      -2.38048555
C        3.54739479      -0.67396078      -1.28768135
C        3.63083049      -0.00726876       0.00491023
C        4.39948714       1.31988284      -0.05871920
C        3.75013282       2.53524268      -0.76611628
C        4.24016335       3.36331936       0.44557059
N        4.38588994       2.09346733       1.21272969
H        3.43805488      -1.67650561      -3.33818225
H        4.12345726      -0.67303881       0.73436287
H        2.62072893       0.19409563       0.39860979
H        5.41625119       1.13270197      -0.45475923
H        2.65546220       2.45013597      -0.80218432
H        4.13113483       2.80375865      -1.75738267
H        5.19630103       3.87503955       0.23284700
H        3.53996992       4.08478636       0.89301507
H        5.23737355       2.01961724       1.77458562
