15
Properties=species:S:1:pos:R:3 -1666.3748435196558=T 13.13926=T 12.71923=T -8.0183=T -6.1265=T -8.038=T 0.232=T -1.2953=T 0.045=T 7.50702=T 0.56397=T 4.538445537=T 0.433731508=T pbc="F F F"
C        1.08364527      -0.00669308       0.31496269
C        2.39664027      -0.00498310       0.03764877
C        3.23592150      -1.24604715      -0.25120502
C        4.61314735      -0.68756024      -0.48955676
C        4.62955877       0.65621790      -0.37184538
C        3.29942339       1.17834643      -0.04570665
C        2.98195213       2.47928750       0.13787338
H        0.53772804       0.91700198       0.51380808
H        0.51205227      -0.93527565       0.35180898
H        2.85846372      -1.80021166      -1.12793898
H        3.21949844      -1.95649092       0.59328557
H        5.47503551      -1.31141200      -0.72660615
H        5.50424600       1.29505001      -0.49780969
H        1.96705908       2.79664309       0.37922646
H        3.73917825       3.25864687       0.04917469
