17
Properties=species:S:1:pos:R:3 -1770.9407758396985=T 13.296318=T 14.19934=T -8.9381=T -6.9371=T -8.752=T 0.6807=T -0.9333=T 0.586=T 8.23087=T -0.03546=T 4.0579501926=T 6.042519703=T 0.443784049=T pbc="F F F"
C        0.99485322      -0.02938621      -0.08464516
C        2.51861531      -0.10157737       0.02083392
C        3.17610936       1.28761823      -0.00859115
C        4.69038478       1.24215338       0.06171680
C        5.38506796       1.73041518       1.11099060
C        5.36268247       0.64132004      -1.04533440
C        5.88467277       0.12663791      -2.01745048
H        0.54600189      -1.03246302      -0.05616181
H        0.68296210       0.44949760      -1.02555681
H        0.56217012       0.55299702       0.74349685
H        2.92390367      -0.70817367      -0.80484372
H        2.80859316      -0.61316495       0.95347831
H        2.80390247       1.89554748       0.83146015
H        2.87936673       1.80413349      -0.93794279
H        4.86686580       2.19232552       1.95268209
H        6.47312566       1.68088059       1.14543844
H        6.36471254      -0.32230123      -2.86271083
