14
Properties=species:S:1:pos:R:3 -1497.670947388951=T 12.658884=T 12.21682=T -8.6408=T -6.7406=T -9.037=T -0.0312=T -1.6589=T -0.54=T 8.45397=T 1.16749=T 4.038038041=T 5.8329337686=T 0.437769278=T pbc="F F F"
C        0.85308122       0.74136230      -0.03817064
C        2.17281184       0.49923465      -0.08162150
N        3.16018749       1.47098577       0.05273906
C        4.52288127       1.18548358       0.00311738
O        4.94948331       0.04460452      -0.16427867
C        5.38922238       2.38664673       0.17161940
C        6.72361214       2.28053565       0.14820325
H        0.14770548      -0.07836983      -0.15247049
H        0.44584429       1.74339910       0.10937913
H        2.58953606      -0.49790409      -0.22863464
H        2.87313232       2.43702927       0.19424790
H        4.90808493       3.35935405       0.31513383
H        7.18518242       1.30171442       0.00377720
H        7.36905486       3.15001387       0.26990879
