16
Properties=species:S:1:pos:R:3 -1566.8257163743083=T 10.09587=T 11.15109=T -9.0828=T -6.8879=T -10.24=T 0.7307=T -1.0824=T -0.104=T 9.98256=T 0.81462=T 3.7348178794=T 11.1861781018=T 0.139426393=T pbc="F F F"
C        3.51561663      -1.19536078      -1.20474680
N        3.22778893      -0.52170952       0.06651413
C        3.48277135       0.90559499       0.02540343
C        4.95019252       1.33378222      -0.00263391
O        5.85610606       0.58546851       0.34951968
C        5.28851050       2.74817532      -0.43944153
O        6.65393023       3.03569766      -0.26601627
H        3.33580003      -2.27228701      -1.08585501
H        4.54889656      -1.05723609      -1.57710612
H        2.81778534      -0.82760236      -1.97278820
H        3.81508892      -0.93111137       0.79807189
H        3.04994260       1.38490827       0.92443018
H        2.95142060       1.35340793      -0.83158716
H        4.65999475       3.46206989       0.12745455
H        4.98899346       2.84685856      -1.50359116
H        7.04478152       2.18446377       0.03735229
