21
Properties=species:S:1:pos:R:3 -1947.0559862013513=T 12.77232=T 13.80149=T -8.2777=T -6.2567=T -9.689=T 0.8843=T -0.047=T 3.236=T 8.90231=T -2.9307=T 7.70882955=T 11.5694188278=T 0.118288898=T pbc="F F F"
C        2.89630051      -0.65712424       1.39481584
C        2.55297660      -0.17547072      -0.01862032
N        1.10929986      -0.12366171      -0.32019347
C        3.12387097       1.22400992      -0.30520159
N        4.56627333       1.35262875      -0.07990562
C        5.34423154       0.60553229      -1.06452554
C        4.96445634       2.75696689      -0.08209094
H        3.98234406      -0.64792918       1.56610753
H        2.51822876      -1.67650517       1.56382606
H        2.43737248       0.00584360       2.14685893
H        2.98403270      -0.88293363      -0.74844091
H        0.63767934       0.44233456       0.39379651
H        0.71102642      -1.06226402      -0.23291451
H        2.62245096       1.93859618       0.37219820
H        2.83645503       1.50859656      -1.34252496
H        5.11991827      -0.46806957      -1.00210664
H        6.41600641       0.73462576      -0.85641398
H        5.15107666       0.93924990      -2.10997865
H        4.41379511       3.30148111       0.69853758
H        4.77505178       3.26299507      -1.05647312
H        6.03916286       2.83640766       0.13777962
