13
Properties=species:S:1:pos:R:3 -1328.5317885294485=T 10.410183=T 11.2135=T -9.1403=T -7.068=T -9.612=T 0.9814=T 0.0215=T 2.181=T 9.25552=T -1.76552=T 4.3562233128=T 10.5822918902=T 0.283980899=T pbc="F F F"
C        1.13414434      -0.02308469      -0.06159000
N        2.59377703      -0.06304152      -0.00316364
C        3.25479798      -0.71347650      -1.12835154
C        3.27629960       0.78708456      -1.00457914
C        4.45026801       1.51161551      -0.60325844
C        5.44809598       2.13268050      -0.29761702
H        0.77299342       0.82541382       0.53615342
H        0.73762109      -0.94986890       0.37748124
H        0.73618540       0.07429083      -1.09239087
H        2.63310860      -1.12325493      -1.93276692
H        4.15738412      -1.27777436      -0.88616706
H        2.62623142       1.31702713      -1.71218797
H        6.32535302       2.67691856      -0.01389207
