12
Properties=species:S:1:pos:R:3 -1282.0854909932316=T 9.223638=T 9.92992=T -9.6209=T -7.4877=T -10.968=T -0.954=T -2.9793=T -1.992=T 10.32986=T 2.27628=T 2.6549990082=T 11.8828058414=T 0.239848404=T pbc="F F F"
O        2.26612026       2.98659357       0.10388867
C        2.25642675       2.20771082      -0.82917971
C        3.40591709       1.23921632      -1.15552311
O        3.25438244       0.46265237      -2.08857791
C        4.60881371       1.29887667      -0.28107631
C        5.35995444       0.02372221      -0.00687739
N        5.90976100       0.99548874      -0.94446416
H        1.40196609       2.11655541      -1.54401804
H        4.57943389       2.05613581       0.50421777
H        4.97695297      -0.88376499      -0.47927445
H        5.79798866      -0.08923155       0.98761399
H        6.63349269       1.55539461      -0.47998936
