19
Properties=species:S:1:pos:R:3 -1864.7837013686783=T 12.272665=T 13.38385=T -9.5341=T -7.4455=T -9.702=T 1.3882=T -0.1674=T 1.225=T 9.13789=T -0.65571=T 6.6922559374=T 0.410999051=T pbc="F F F"
C        2.81664655      -0.76872537      -1.42852597
C        2.58039929      -0.18654671      -0.03483992
C        3.12846519       1.23422140       0.13940334
O        2.67969339       1.68307206       1.43337646
C        2.84441267       3.08342188       1.63012536
C        4.63093958       1.28747220       0.04995755
C        5.32201219       2.01067795      -0.83780418
H        2.40097610      -1.78327147      -1.50096490
H        3.88802648      -0.82530541      -1.66872394
H        2.33421021      -0.15548906      -2.20512280
H        3.03780995      -0.82991880       0.73483185
H        1.50267196      -0.14806260       0.18804922
H        2.69478545       1.89292490      -0.64338392
H        2.44667846       3.30800939       2.62808186
H        2.27700903       3.66360255       0.87718350
H        3.90359899       3.39147859       1.58421011
H        5.15865396       0.68010732       0.79517626
H        4.81433305       2.62754724      -1.58448118
H        6.41321750       2.00793394      -0.85710871
