8
Properties=species:S:1:pos:R:3 -871.4162307928073=T 7.770683=T 7.48844=T -9.439=T -7.1701=T -8.955=T 0.6052=T -1.1543=T 0.428=T 8.59068=T 0.03933=T 4.0762629248=T 14.3818676574=T 0.817528483=T pbc="F F F"
C        0.94191728      -0.03829793       0.00000000
C        2.28602450       0.04223430       0.00000000
C        3.02070954       1.25580523       0.00000000
C        3.68967694       2.27300896       0.00000000
H        0.44284395      -1.00705193       0.00000000
H        0.31933240       0.85701584       0.00000000
H        2.88116088      -0.87700867       0.00000000
H        4.26974451       3.17301419       0.00000000
