13
Properties=species:S:1:pos:R:3 -1314.3672457873201=T 9.106834=T 9.88052=T -9.5539=T -7.3831=T -10.888=T 0.9438=T -0.992=T -0.121=T 10.00903=T 0.73938=T 3.6780198928=T 11.9461626874=T 0.192562872=T pbc="F F F"
C        0.98057889       0.09538343      -0.18769196
C        2.46780007       0.12780837       0.06044051
N        3.38781635      -0.76420095      -0.64347180
C        3.38853394       0.68480407      -0.99583412
C        4.60006349       1.43627865      -0.57987115
O        4.95410098       2.49368569      -1.07240727
H        0.50598629       1.02873824       0.14816270
H        0.51553298      -0.73537272       0.36369579
H        0.75717039      -0.03416497      -1.25706886
H        2.76152548       0.29446101       1.10300303
H        2.88353086      -1.27326421      -1.37846906
H        2.92421200       1.01823114      -1.92802253
H        5.17010825       0.95025225       0.25411472
