17
Properties=species:S:1:pos:R:3 -1666.8347837291815=T 11.290882=T 12.4599=T -8.6804=T -6.5704=T -9.091=T 0.9547=T 0.0437=T 1.407=T 8.52378=T -0.83624=T 6.2766424668=T 0.352172797=T pbc="F F F"
C        3.88634762      -2.49122609       0.86059346
O        4.86411426      -1.50126814       0.57869554
C        4.27357553      -0.22860553       0.39176621
C        5.32202997       0.81052472       0.08294368
C        6.63799738       0.56989034      -0.01220209
O        4.69263576       2.01926136      -0.07885289
C        5.53117252       3.13514833      -0.37813718
H        4.42057804      -3.43887904       1.00451357
H        3.16877591      -2.60322120       0.02534450
H        3.31937340      -2.25234138       1.78067842
H        3.71724235       0.08548454       1.29961635
H        3.53956516      -0.25222786      -0.44050974
H        6.98980625      -0.44668022       0.14264871
H        7.36555500       1.34568042      -0.23665319
H        4.86348996       3.99899864      -0.47141414
H        6.07316520       2.97938541      -1.32529544
H        6.25766570       3.31177567       0.43207421
