15
Properties=species:S:1:pos:R:3 -1464.718524008005=T 11.131289=T 11.88077=T -8.6862=T -6.6574=T -9.27=T 1.4095=T -0.1958=T 0.716=T 8.82888=T -0.13888=T 4.9364901914=T 5.6336634694=T 0.173679576=T pbc="F F F"
N        1.03198779       0.79176837       1.24608193
N        2.37553173       0.62949788       1.00478110
C        2.89488769       1.25331980       0.00769357
C        4.37305934       1.19207700      -0.24081047
C        5.03338763       2.55324147      -0.15555418
C        6.18767137       2.91382877      -0.99495845
O        4.87499236       3.42520636      -1.29941778
H        0.66067827      -0.02615593       1.72490669
H        0.46497742       1.04679789       0.42734091
H        2.28196350       1.86520869      -0.67940281
H        4.57380807       0.77604927      -1.24292110
H        4.82256792       0.51992420       0.50652081
H        4.92019027       3.06972861       0.80618875
H        6.57761353       2.17799687      -1.70743320
H        6.90843311       3.65781076      -0.63916576
