9
Properties=species:S:1:pos:R:3 -1090.6559631194375=T 10.651053=T 11.00382=T -10.3807=T -8.5187=T -10.663=T -0.8795=T -2.7556=T -1.38=T 10.04903=T 1.71911=T 3.3152120596=T 10.6611469862=T 1.304114759=T pbc="F F F"
N        1.00941018      -0.00980861       0.00000000
C        2.37350529      -0.05142580       0.00000000
O        3.04574787      -1.07896874       0.00000000
C        3.02191188       1.25611251       0.00000000
C        3.68596607       2.28125052       0.00000000
C        4.40034852       3.44154307       0.00000000
N        5.00707356       4.44713222       0.00000000
H        0.50218790       0.86831861       0.00000000
H        0.49901872      -0.88774377       0.00000000
