11
Properties=species:S:1:pos:R:3 -1242.536583967558=T 10.851255=T 10.32759=T -9.0194=T -7.1809=T -9.324=T -1.003=T -2.8173=T -1.705=T 8.76653=T 2.02437=T 3.280483581=T 3.941576933=T 0.351010464=T pbc="F F F"
N        0.91886499       0.02150544       0.10077381
C        2.27338131       0.03355095       0.04221795
C        2.88575435      -1.32593753      -0.04907179
O        2.20217567      -2.33839215      -0.01542238
C        3.07042389       1.15251420       0.04794258
C        4.47842169       1.10863201      -0.04149100
N        5.64937822       1.13841567      -0.11232764
H        0.38399195       0.85036733       0.32692511
H        0.48374817      -0.89372458       0.19983481
H        3.99181313      -1.35301272      -0.14245574
H        2.62850663       2.14866138       0.12471429
