14
Properties=species:S:1:pos:R:3 -1380.3975616391212=T 9.638314=T 10.40736=T -9.7963=T -7.5319=T -9.548=T 1.0014=T -0.488=T 1.119=T 9.03006=T -0.52431=T 6.4363488334=T 0.386921148=T pbc="F F F"
O        2.57765194      -0.93237483       1.25549265
C        2.68363047      -0.26491879      -0.01538595
C        3.05145231       1.16332284       0.23143286
C        4.09648290       1.78646839      -0.33018456
C        4.44966214       3.22168530      -0.08601518
O        5.77165127       3.36390840       0.46342119
H        2.16175113      -1.79761355       1.10230623
H        1.71349842      -0.30425119      -0.54825569
H        3.44288226      -0.74578534      -0.65959108
H        2.39095225       1.71153724       0.91366085
H        4.77242457       1.23225934      -0.99214389
H        3.69166778       3.69611990       0.56447185
H        4.47674151       3.78410851      -1.03265607
H        5.80466105       2.81162378       1.26558680
