19
Properties=species:S:1:pos:R:3 -1894.4112782869654=T 11.69188=T 13.2242=T -9.0625=T -7.0754=T -10.46=T 1.2196=T -0.4615=T 0.354=T 9.49275=T 0.41061=T 3.7611525058=T 11.4231649422=T 0.202794101=T pbc="F F F"
C        0.91557066       0.53190401      -0.80961361
C        2.30038965       0.57462913      -0.17473036
C        3.10462311       1.82396889      -0.50676757
O        2.60766740       2.77941966      -1.08683443
C        4.58264199       1.81145322      -0.09517947
C        5.40671263       1.26752589      -1.28009340
C        5.06095869       3.20359104       0.32385575
H        0.37229172      -0.37191261      -0.50239770
H        0.98577747       0.53741301      -1.90613762
H        0.32547723       1.41110129      -0.51934658
H        2.90405728      -0.30863467      -0.44796962
H        2.23350833       0.53463530       0.92853177
H        4.69339013       1.10868777       0.74957257
H        5.31126574       1.93651450      -2.14779218
H        5.08202809       0.26202404      -1.58491986
H        6.47011365       1.20903739      -1.00666771
H        4.90758309       3.92107325      -0.49381668
H        6.13021828       3.18252720       0.57806826
H        4.50729487       3.57207169       1.19907843
