17
Properties=species:S:1:pos:R:3 -1608.6813739317552=T 11.445554=T 11.92344=T -8.6219=T -6.6116=T -9.133=T 0.8314=T -0.2127=T 0.791=T 8.66175=T -0.15282=T 4.9204340044=T 5.5624583096=T 0.176511142=T pbc="F F F"
C        4.33197611      -0.17191122      -2.08019548
O        4.42178794      -0.62440860      -0.73256481
C        4.27449559       0.44343741       0.21380610
C        5.45689112       1.37922961       0.25629905
C        6.81874646       0.81295109       0.55476051
N        5.21144841       2.63528133       0.06125975
N        6.24715390       3.52755848       0.21264850
H        4.41762553      -1.06125810      -2.71755326
H        5.13863032       0.53803240      -2.33760284
H        3.36124592       0.32179122      -2.27307078
H        4.15843502      -0.06481829       1.18576735
H        3.36341057       1.03490908       0.01118300
H        6.77844839      -0.28083416       0.61824383
H        7.21217919       1.21228693       1.50472062
H        7.55210059       1.06732577      -0.23120991
H        6.04234876       4.38493632      -0.29568955
H        7.18765619       3.17271072       0.00580792
