15
Properties=species:S:1:pos:R:3 -1569.636135673007=T 11.152614=T 11.68142=T -8.8591=T -7.0242=T -9.064=T 0.9573=T -0.0352=T 0.538=T 8.38976=T -0.000720000000001=T 4.983493284=T 6.650051103=T 0.307702264=T pbc="F F F"
C        2.40727652      -0.49447699      -1.42065529
C        2.44662641       0.07096644      -0.00206380
N        2.94232653       1.44358451       0.04412469
C        2.21252279       2.59625227       0.05075211
C        3.12053863       3.64452806       0.00400803
C        4.38330542       3.01401769      -0.03543073
N        4.27577076       1.67618403      -0.01561674
H        2.05385943      -1.53491811      -1.40307408
H        3.41078633      -0.47492606      -1.86522825
H        1.73120111       0.08966070      -2.06036993
H        3.10991129      -0.52720764       0.63771138
H        1.44669601       0.06984518       0.45485582
H        1.12767942       2.58071889       0.09480757
H        2.89758345       4.70631969       0.00909990
H        5.36968591       3.46947134      -0.06814068
