15
Properties=species:S:1:pos:R:3 -1548.951473119907=T 11.532665=T 11.69571=T -7.9956=T -6.105=T -8.043=T 0.8606=T -0.0997=T 1.064=T 7.55079=T -0.49429=T 4.8536551448=T 6.2533083016=T 0.484586817=T pbc="F F F"
C        2.89520893      -1.08056620       0.52618709
N        2.57544171      -0.06358702      -0.48643646
N        3.26493916       1.14692300      -0.27355603
C        2.62454260       2.31625292       0.07536424
C        3.59056539       3.29723752       0.21427954
C        4.85382544       2.69804029      -0.06353228
C        4.62935694       1.36448207      -0.35867334
H        2.34066478      -1.99299660       0.26808243
H        2.54422817      -0.72801096       1.50499046
H        3.96993403      -1.32420978       0.60350943
H        2.83029882      -0.39994838      -1.41963589
H        1.54528316       2.32970446       0.17898762
H        3.40619112       4.33383005       0.47981476
H        5.82318109       3.18835719      -0.05461957
H        5.30954865       0.56039143      -0.62080199
