16
Properties=species:S:1:pos:R:3 -1665.9208407693823=T 11.833298=T 12.27394=T -8.889=T -6.8115=T -9.023=T 1.0134=T -0.1187=T 1.334=T 9.04796=T -0.7463=T 6.0893492152=T 6.7438589106=T 0.381463595=T pbc="F F F"
C        0.84873949       0.48803718      -0.07842952
C        2.13388674       0.21356894       0.16796155
C        3.30211941       1.16907013       0.01522128
N        4.01370896       1.32988687       1.32213839
C        3.63268324       2.66612757       1.84355860
C        3.08615158       3.41533198       0.65073394
C        2.91146156       2.57980960      -0.37978032
H        0.07328927      -0.26588224       0.06439387
H        0.52553649       1.47337739      -0.42115653
H        2.42022408      -0.77994376       0.52825396
H        4.00036860       0.71595105      -0.71280389
H        5.01482539       1.35585584       1.12082791
H        4.49890811       3.15804980       2.31279996
H        2.85757865       2.57300472       2.62764729
H        2.82734090       4.47482245       0.66887163
H        2.49470753       2.83978248      -1.35272813
