17
Properties=species:S:1:pos:R:3 -1689.9319826935432=T 10.624657=T 11.76487=T -9.1029=T -7.0404=T -10.598=T 1.0377=T -0.7858=T 0.173=T 9.71847=T 0.54812=T 3.7585240026=T 12.2248088238=T 0.146761834=T pbc="F F F"
C        4.34985387      -0.19434921       2.42784521
O        3.80983742       1.11458561       2.25866255
C        3.60684230       1.44797570       0.88403572
C        2.70591106       2.68051243       0.83439981
C        4.92522692       1.72649247       0.12641292
C        6.00178741       2.49718201       0.85832009
O        5.04555928       1.37202439      -1.03741423
H        4.41389321      -0.37395011       3.50821212
H        5.35960775      -0.29217497       1.98783675
H        3.69552750      -0.95822911       1.97001325
H        3.12068925       0.60647610       0.35379465
H        3.16270313       3.51871498       1.37869028
H        1.74192673       2.44892131       1.30590624
H        2.52927295       2.98286240      -0.20598372
H        6.10159282       2.16413517       1.89919696
H        5.71153154       3.55968587       0.89537700
H        6.94993687       2.41299495       0.31700441
