13
Properties=species:S:1:pos:R:3 -1481.3494322752906=T 15.851842=T 15.48988=T -8.4908=T -6.5643=T -8.043=T -0.0837=T -1.5629=T 0.056=T 7.56546=T 0.59843=T 3.0186375476=T 7.7940203306=T 0.946810355=T pbc="F F F"
C        0.93252989      -0.00838305       0.07486154
C        2.42150334      -0.00536082       0.15825652
C        3.20500818       1.03938690      -0.19750301
C        4.61096715       1.04763726      -0.11921231
C        5.83773329       1.10372408      -0.06994897
C        7.19046551       1.15016571      -0.00929161
C        8.41120019       1.19268707       0.04406521
H        0.57671730      -0.82160523      -0.57838185
H        0.54184695       0.94288071      -0.31053413
H        0.48393343      -0.19145123       1.06487186
H        2.90549069      -0.91207550       0.53470588
H        2.73362284       1.95475748      -0.57620333
H        9.47962124       1.23008660       0.09128421
