16
Properties=species:S:1:pos:R:3 -1630.5456466402225=T 12.687688=T 12.60343=T -8.0473=T -6.2188=T -8.675=T 0.7437=T -0.8194=T -0.561=T 8.09406=T 1.25255=T 3.5462723692=T 4.2614112186=T 0.476438715=T pbc="F F F"
C        1.22497824      -0.30093269      -0.22958249
N        2.66145994      -0.16466551      -0.05773122
C        3.28913146       1.03007077       0.10050510
C        4.64289723       1.23648131       0.06879995
C        5.63572896       0.14042939      -0.19246309
C        5.10312295       2.59198319       0.30578050
O        6.27915982       2.96182705       0.31001206
H        0.88600902      -1.25942712       0.18593666
H        0.91748612      -0.24692437      -1.28809903
H        0.71785122       0.50304292       0.31953858
H        3.23827046      -0.95882112      -0.32299823
H        2.62193515       1.87661247       0.29476751
H        5.59178521      -0.64990293       0.57578119
H        6.64720597       0.56808557      -0.18055821
H        5.47893707      -0.33662647      -1.17467708
H        4.27768116       3.33052755       0.49305780
