16
Properties=species:S:1:pos:R:3 -1508.5392991415285=T 10.033586=T 10.78049=T -8.6935=T -6.4588=T -10.206=T 0.9358=T -0.0322=T 3.205=T 9.53744=T -2.91029=T 8.3889423544=T 11.681774941=T 0.113792612=T pbc="F F F"
N        2.13283165      -0.42666282      -1.38025848
C        2.36528650       0.08407628      -0.02052715
C        3.33664421       1.25959222      -0.04957543
C        2.73803199       2.56325252      -0.63736919
N        2.44760333       3.02228625       0.75276634
C        3.42702424       2.03766813       1.28973337
H        1.39267758      -1.13132655      -1.37031128
H        2.97339064      -0.89969188      -1.72343414
H        2.75175682      -0.67662934       0.69027136
H        1.40030840       0.43587686       0.37963786
H        4.29992917       0.94442358      -0.47881791
H        1.85341021       2.44774612      -1.28208967
H        3.49739300       3.16687364      -1.16767767
H        2.67581311       4.00064284       0.93978019
H        4.44068129       2.44356104       1.46471370
H        3.09261785       1.51285110       2.20113811
