14
Properties=species:S:1:pos:R:3 -1486.6223183332713=T 10.044934=T 11.22645=T -10.4645=T -8.2342=T -11.582=T 0.7712=T -0.2943=T 1.397=T 11.19879=T -1.00387=T 5.3417756282=T 11.9407073034=T 0.22992485=T pbc="F F F"
O        0.92738838      -0.00512632       0.15229855
C        2.34047671      -0.03929726       0.03564547
C        3.05611413       1.04729941       0.86069043
C        4.14232078      -0.01307930       1.25233126
C        3.12809264      -1.12652855       0.81885695
C        5.34112371       0.04065564       0.43108218
N        6.30001710       0.08064232      -0.23433373
H        0.54253903      -0.55514736      -0.55140516
H        2.65657978      -0.00735022      -1.02103649
H        2.45315363       1.30751775       1.74098323
H        3.38865449       1.95825604       0.35004005
H        4.44188534      -0.02302004       2.30895825
H        3.52665161      -1.98887833       0.27084467
H        2.54743267      -1.46299380       1.68801432
