19
Properties=species:S:1:pos:R:3 -1878.737277537358=T 12.338794=T 13.49307=T -9.0719=T -6.9259=T -8.949=T 0.8457=T -0.1036=T 1.316=T 8.36977=T -0.63464=T 6.094221865=T 0.371371094=T pbc="F F F"
C        0.83008985      -0.13693725       0.20699323
C        2.32055145       0.01887584       0.25707244
C        3.04423582       1.13271548       0.03139802
C        2.46106169       2.47634117      -0.32503825
C        4.56590350       1.13389143       0.10128707
C        5.22965744      -0.11039657       0.68337898
O        5.12079741       1.44166553      -1.20394386
H        0.53945048      -0.88836245      -0.54504302
H        0.30352600       0.79565700      -0.02807706
H        0.44677069      -0.50414478       1.17279985
H        2.86106408      -0.89564590       0.52063098
H        1.39010145       2.43653312      -0.55407734
H        2.98722893       2.89722551      -1.19435753
H        2.60355823       3.18933166       0.50483991
H        4.86988429       2.00287469       0.71251158
H        5.00265170      -1.00935434       0.09034863
H        4.90962404      -0.29002071       1.71974122
H        6.31828160       0.03107353       0.67397176
H        4.79409134       0.75099707      -1.81041661
