15
Properties=species:S:1:pos:R:3 -1545.583757869676=T 9.972903=T 11.20093=T -9.4501=T -7.273=T -10.982=T 0.8286=T -1.1801=T -0.148=T 10.21421=T 0.7925=T 3.6634639364=T 8.0621400556=T 0.114891907=T pbc="F F F"
C        0.96850299      -0.09181313       0.19939795
C        2.43889610       0.09171299      -0.09311525
C        3.22183774       1.16146206       0.70058450
C        4.12135080      -0.00779430       1.13288153
O        3.26344939      -0.98829371       0.48521623
C        5.52349067      -0.04050359       0.55186308
O        6.24761122       0.93197968       0.45474542
H        0.59690175      -1.01840801      -0.26047925
H        0.39348519       0.74975068      -0.21568228
H        0.78774642      -0.14298149       1.28258451
H        2.61590229       0.14345982      -1.18235794
H        2.64841075       1.61384065       1.51881209
H        3.72878947       1.94401970       0.12345578
H        4.20243955      -0.18814987       2.22252947
H        5.84198567      -1.05802147       0.20656415
