16
Properties=species:S:1:pos:R:3 -1624.8211720317395=T 10.836767=T 11.49641=T -8.4564=T -6.3448=T -9.034=T 0.8605=T -0.119=T 1.25=T 8.58715=T -0.69087=T 6.0158875102=T 0.275469327=T pbc="F F F"
N        1.07625655       0.09001013       0.59049368
C        2.45128828      -0.00127869       0.08034579
C        2.69351743       1.17651792      -0.86827971
O        4.04166589       1.19866128      -1.37834390
C        4.48351052      -0.02495822      -1.81009751
C        3.88002598      -1.19991449      -1.56699723
C        2.65388128      -1.30399852      -0.70005034
H        1.00133191       0.85301951       1.26854426
H        0.83925141      -0.76613736       1.09816291
H        3.22519106       0.04699429       0.87368041
H        2.55615956       2.14149668      -0.36022392
H        1.98494566       1.11362578      -1.71288211
H        5.40828208       0.07163666      -2.38099767
H        4.32588571      -2.10291029      -1.98402572
H        1.74762256      -1.50525583      -1.30046398
H        2.75637414      -2.14904885       0.00252503
