17
Properties=species:S:1:pos:R:3 -1677.3858299191056=T 10.43401=T 11.77856=T -9.548=T -7.344=T -11.441=T 0.8615=T -0.0506=T 2.652=T 10.88411=T -2.39972=T 9.1319656552=T 13.8994629286=T 0.111400923=T pbc="F F F"
C        0.85100470       0.11924149       0.07536303
C        2.36148139      -0.04829784       0.02353879
C        3.21632180       0.88777356       0.90559542
O        3.82455626      -0.23587047       1.61060979
C        2.98917546      -1.18538599       0.86488045
C        3.85286387      -2.20648247       0.15187114
O        4.62726943      -2.97149744       1.07452360
H        0.33987206      -0.71066637      -0.43487130
H        0.53788358       1.05244621      -0.41629100
H        0.49237508       0.14869627       1.11533018
H        2.71170989      -0.07436551      -1.02044027
H        2.63401828       1.52345469       1.59564807
H        3.97139734       1.50315164       0.39084703
H        2.28611620      -1.69310847       1.55052594
H        4.50253021      -1.68829245      -0.58056448
H        3.21717754      -2.92009118      -0.39662209
H        5.11993690      -2.32398567       1.61349569
