17
Properties=species:S:1:pos:R:3 -1746.1027212743058=T 10.896075=T 11.99565=T -9.6122=T -7.4134=T -10.515=T 0.9551=T 0.0329=T 2.876=T 10.14819=T -2.5316=T 8.1999628932=T 10.9010846934=T 0.142288412=T pbc="F F F"
O        1.59509316      -0.25298483      -0.89905724
C        2.77610593       0.06353978      -0.19056001
C        3.49901618      -1.02407196       0.56369782
C        4.09686098      -0.44519590      -0.71323579
C        5.13588744       0.66659547      -0.56990645
C        4.30608127       1.95969599      -0.37751171
C        2.98243073       1.51087318       0.28408382
H        0.89542214      -0.42151818      -0.24240223
H        3.08583652      -2.03132964       0.48788384
H        3.97024022      -0.78104065       1.51995721
H        4.10640751      -1.09430573      -1.58967863
H        5.79166610       0.48172854       0.29721201
H        5.78605654       0.72865088      -1.45416465
H        4.83856243       2.73142161       0.19790674
H        4.07882948       2.38665405      -1.36705535
H        3.04179310       1.56530158       1.38374648
H        2.13148026       2.12888583      -0.03403585
