15
Properties=species:S:1:pos:R:3 -1559.444778026399=T 9.982381=T 11.02491=T -9.3199=T -7.2545=T -10.75=T 0.8246=T -1.0105=T 0.104=T 9.86758=T 0.65351=T 3.747848808=T 12.8087704852=T 0.182933765=T pbc="F F F"
C        0.99405048      -0.02127192       0.28834153
C        2.47137280       0.00593244      -0.06900627
O        2.54536304       0.04575186      -1.49103170
C        3.28324214       1.10114870       0.70970907
C        3.86616105      -0.02240138       1.57503186
O        4.46842501      -0.04403017       2.62484332
C        3.30991146      -1.11043432       0.64892471
H        0.85420796      -0.05100613       1.37748415
H        0.51578174      -0.90774431      -0.15064970
H        0.49457911       0.87513544      -0.10453462
H        3.48307066       0.06231015      -1.75096894
H        2.72852183       1.89517083       1.22844944
H        4.06367419       1.56882097       0.08785985
H        4.10125647      -1.52374407       0.00289378
H        2.77514205      -1.94523809       1.12252352
