11
Properties=species:S:1:pos:R:3 -1176.0672575022086=T 10.785781=T 11.00125=T -9.1877=T -7.4307=T -9.206=T 0.5775=T -1.0341=T -0.284=T 8.50841=T 0.86729=T 4.6553767336=T 10.1300653538=T 0.540697556=T pbc="F F F"
C        0.88591209       0.04653219      -0.00796649
C        2.38254412       0.05906728       0.00043903
C        3.24534819       1.13718742       0.00313200
C        4.60196724       0.71626136       0.01040641
N        4.83742585      -0.59091718       0.01393378
S        3.35303166      -1.38150916       0.00741633
H        0.49857053       1.07329096      -0.00066691
H        0.48142168      -0.47460208       0.87163357
H        0.49166217      -0.45803416      -0.90184675
H        2.92004038       2.17684232       0.00004137
H        5.46144607       1.39012105       0.01388767
