17
Properties=species:S:1:pos:R:3 -1633.880169972262=T 10.555699=T 11.39077=T -8.7771=T -6.6531=T -10.241=T 0.7195=T -0.3044=T 2.803=T 9.57864=T -2.52335=T 8.16261831=T 12.5900095868=T 0.092715257=T pbc="F F F"
N        0.99180722       0.01348598       0.00354173
C        2.45483572       0.02697511       0.01703682
C        3.06754699       1.12229675       0.90683900
N        4.43487441       0.66953133       1.21421234
C        4.29713633      -0.79210670       1.40577366
C        3.03762269      -1.27067774       0.62188914
O        3.26831557      -2.30730169      -0.34201230
H        0.66402061      -0.80518349      -0.51658506
H        0.63232368       0.83035997      -0.49669593
H        2.90729135       0.13228668      -0.99763351
H        2.48403958       1.19478472       1.84148246
H        3.08260688       2.11712997       0.43919864
H        5.02593204       0.84385239       0.39684948
H        5.20154021      -1.32644597       1.08185965
H        4.16621250      -0.99911624       2.48077057
H        2.29430659      -1.70343043       1.30891854
H        3.89637761      -1.96017063      -1.00200522
