16
Properties=species:S:1:pos:R:3 -1659.1635237410803=T 10.526105=T 11.37578=T -9.0579=T -7.0837=T -10.495=T 0.766=T -0.2422=T 0.617=T 9.53156=T 0.0667=T 4.3544999074=T 11.1889553882=T 0.165085123=T pbc="F F F"
O        1.37422410       0.13980579       0.97107375
C        2.38829229       0.05282479       0.27636019
C        3.05237503      -1.28817259      -0.02020947
C        3.99037717      -1.29011571      -1.23204996
C        4.91482534      -0.07319403      -1.18057372
C        4.09111667       1.21068679      -1.21235285
N        3.01529024       1.17121427      -0.21950183
H        2.24501629      -2.02655683      -0.11587706
H        3.61008510      -1.55840537       0.89273340
H        4.57240986      -2.22356402      -1.25978926
H        3.39858143      -1.25995767      -2.16321490
H        5.51836456      -0.10302963      -0.25781456
H        5.61478405      -0.06742339      -2.02922712
H        4.72850928       2.08301640      -1.00063208
H        3.66934535       1.35231676      -2.22585236
H        2.50834322       2.03401443      -0.02769215
