19
Properties=species:S:1:pos:R:3 -1875.7112418224558=T 12.715304=T 14.15053=T -9.4596=T -7.2954=T -9.324=T 1.3173=T -0.1104=T 1.215=T 8.7771=T -0.58993=T 6.3515796052=T 0.412289113=T pbc="F F F"
C        0.95183815      -0.35461294       0.28620939
C        2.46910528      -0.31519742       0.09961234
C        3.01651921       1.11458391      -0.05789749
C        4.50346654       1.15605873      -0.24572883
C        5.14370062       1.66365480      -1.30982169
C        6.63238305       1.65927413      -1.47374278
O        7.05319501       0.92217017      -2.63757648
H        0.58977515      -1.38666810       0.39668939
H        0.43385688       0.09004988      -0.57729183
H        0.64442103       0.20595384       1.18226357
H        2.75226847      -0.90422042      -0.78836068
H        2.96303141      -0.79863079       0.95970525
H        2.74794252       1.69232959       0.84590691
H        2.51966121       1.61238573      -0.90721599
H        5.10528162       0.72257906       0.56492351
H        4.56918305       2.09401438      -2.13891454
H        7.11367683       1.26678572      -0.55824686
H        7.01167132       2.68014871      -1.63860628
H        6.64047263       0.04189101      -2.57510692
