17
Properties=species:S:1:pos:R:3 -1753.9294639038578=T 11.242908=T 12.0073=T -9.3203=T -7.0632=T -9.136=T 0.8864=T -0.068=T 1.242=T 8.64183=T -0.61746=T 6.1018222068=T 0.301470252=T pbc="F F F"
C        0.98898897      -0.00066079       0.03223505
C        2.51489124      -0.00380232      -0.00874455
O        2.93272390      -0.00736306       1.36706425
C        3.04252814      -1.23514579      -0.81303330
C        3.38217545      -0.67239829      -2.16621884
C        3.38501088       0.66955462      -2.16360305
C        3.04781068       1.22843392      -0.80822119
H        0.58235389       0.00151831      -0.98865778
H        0.62511632       0.89152300       0.56082130
H        0.62149089      -0.89275248       0.55847624
H        3.90648585      -0.00982859       1.37838551
H        2.30002788      -2.04892895      -0.84747713
H        3.93847310      -1.65965097      -0.32211793
H        3.62378291      -1.29615974      -3.02871240
H        3.62924878       1.29560783      -3.02370225
H        3.94564521       1.64701914      -0.31566947
H        2.30887591       2.04558415      -0.83934446
