11
Properties=species:S:1:pos:R:3 -1173.4928724936774=T 9.584758=T 9.68708=T -9.1186=T -6.971=T -8.784=T 0.7258=T -0.9358=T 0.571=T 8.30896=T -0.05737=T 4.0657861078=T 6.0554018484=T 0.447994056=T pbc="F F F"
C        0.99644274       0.02758157      -0.02099195
C        2.50517042      -0.04643395       0.03195361
C        3.17568836      -1.20551576       0.19876892
C        3.20178328       1.19214651      -0.10554395
C        3.74024073       2.27705095      -0.22786643
H        0.61286748       0.68212137       0.77547512
H        0.55232798      -0.96917212       0.09457528
H        0.66345993       0.45644050      -0.97765475
H        2.63811685      -2.14880518       0.30342913
H        4.26432792      -1.23068030       0.23324804
H        4.23343433       3.22209643      -0.32835303
