14
Properties=species:S:1:pos:R:3 -1477.789167202096=T 13.255737=T 13.46287=T -7.4584=T -5.7033=T -7.79=T 0.8517=T -0.2149=T 0.34=T 7.20825=T 0.23773=T 4.0563755704=T 5.908614823=T 0.346659101=T pbc="F F F"
C        0.84750911       0.05163479       0.04751018
C        2.34374450       0.00608208       0.05227437
C        3.22172369       1.06405520      -0.11801252
N        2.81971486       2.38629912      -0.39324213
C        4.59440106       0.66121104      -0.07214000
C        4.74934715      -0.68734713       0.13402195
S        3.22295534      -1.48654205       0.26539033
H        0.46035946       0.76060419       0.79995035
H        0.41385389      -0.92943754       0.28144415
H        0.45154450       0.36030951      -0.93441865
H        3.47041199       3.08342341      -0.03493153
H        1.87642466       2.59814631      -0.07139165
H        5.43025728       1.35024080      -0.19575024
H        5.66965251      -1.25808973       0.21158540
