17
Properties=species:S:1:pos:R:3 -1752.0955409139729=T 11.296068=T 12.10189=T -9.3635=T -7.1497=T -9.126=T 1.0173=T -0.0467=T 1.237=T 8.6088=T -0.60144=T 6.0704661474=T 0.305254365=T pbc="F F F"
C        0.93050752       0.00632041       0.09840308
C        2.45185531      -0.01808178      -0.05456277
C        3.02877294      -1.23371888      -0.75210482
C        4.09078980      -0.91388470      -1.50889656
C        4.38343569       0.56674627      -1.43746575
C        3.06055592       1.15384823      -0.88751651
O        2.20129917       1.58294697      -1.95116365
H        0.59745982       0.93379450       0.58545631
H        0.59247637      -0.84048722       0.71305330
H        0.42497022      -0.05435503      -0.87518550
H        2.89806503       0.03749027       0.95894060
H        2.63547375      -2.24247219      -0.61059057
H        4.69820004      -1.62114222      -2.07590577
H        5.22314788       0.76494660      -0.74619846
H        4.64894381       1.02815877      -2.40111608
H        3.21478047       2.05402717      -0.27582275
H        2.08199626       0.81909283      -2.54634409
