20
Properties=species:S:1:pos:R:3 -1950.6903463746794=T 12.45794=T 13.55399=T -8.1946=T -6.2117=T -9.65=T 0.9687=T 0.0588=T 3.162=T 8.85524=T -2.84328=T 7.7733270672=T 10.9047422804=T 0.13812807=T pbc="F F F"
C        0.98160711      -0.11033720       0.44872753
C        2.38582010       0.10619118      -0.12005435
C        3.15887935       1.24649933       0.61126752
C        4.50359047       0.61710762       0.99155691
N        4.15604415      -0.78899089       1.20434943
C        5.30076756      -1.66752799       1.36367378
C        3.30926272      -1.12380612       0.05624080
H        0.44297592      -0.89856648      -0.09867539
H        0.38121007       0.80997754       0.38626250
H        1.03814048      -0.40627522       1.50748045
H        2.29957809       0.33957251      -1.19269634
H        2.61261132       1.54012708       1.52061326
H        3.27842840       2.14384988      -0.01159709
H        5.24005994       0.73259632       0.15998603
H        4.95208606       1.04953006       1.89920625
H        4.96013313      -2.70163700       1.51748146
H        5.88322863      -1.36824800       2.24691903
H        5.97834946      -1.65553008       0.47905399
H        3.92396258      -1.27720734      -0.86215209
H        2.75361445      -2.05622520       0.24529633
