14
Properties=species:S:1:pos:R:3 -1420.1171050816022=T 10.436967=T 11.90766=T -9.5091=T -7.1237=T -9.248=T 0.946=T -0.2216=T 2.391=T 8.83717=T -1.95512=T 4.177584284=T 10.1781223274=T 0.401318872=T pbc="F F F"
C        0.97348201      -0.08478304       0.00724010
C        2.51077417      -0.01367339       0.00231742
C        3.01390610       1.35534925      -0.00585101
C        3.39129107       2.51114225      -0.01715214
C        3.88963923       3.87860834      -0.01953560
O        2.85694474       4.77526990      -0.47218009
H        0.64029237      -1.13182132       0.00769796
H        0.55850760       0.41242961      -0.87948825
H        0.56324333       0.41217235       0.89638593
H        2.90475011      -0.55232617      -0.87606087
H        2.90912325      -0.53869897       0.88704657
H        4.77694758       3.93887742      -0.67897968
H        4.21958600       4.14650183       1.00277393
H        3.23325244       5.67251194      -0.45374425
