17
Properties=species:S:1:pos:R:3 -1691.609733366389=T 11.64978=T 12.1058=T -9.0523=T -6.8801=T -9.072=T 0.8159=T -0.204=T 1.444=T 8.55401=T -0.80458=T 6.227382829=T 0.305868643=T pbc="F F F"
N        1.06103718       0.01125038       0.15939315
C        2.52010526      -0.08512529      -0.02002656
C        2.85597312      -1.31432153      -0.90680523
C        3.37580127      -0.71922291      -2.18836085
C        3.45298838       0.61654669      -2.14135185
C        3.04276927       1.17592521      -0.80192300
N        4.15174403       1.94071822      -0.21124573
H        0.83503949       0.82231317       0.74285470
H        0.71698565      -0.80815347       0.66749689
H        3.07365621      -0.14628085       0.93915923
H        1.94534774      -1.91195775      -1.08333809
H        3.59273022      -1.99098455      -0.44110176
H        3.64413992      -1.32988412      -3.05297070
H        3.79949886       1.26420273      -2.94794298
H        2.19996696       1.88168617      -0.92208859
H        4.95219292       1.32264229      -0.05120287
H        3.87987352       2.31903560       0.69967426
