18
Properties=species:S:1:pos:R:3 -1760.5618307823097=T 10.967347=T 11.97781=T -8.7752=T -6.6753=T -10.208=T 0.7951=T -0.2455=T 2.722=T 9.50097=T -2.43587=T 8.1793812172=T 10.5130953036=T 0.093585673=T pbc="F F F"
C        0.93734087      -0.00426685       0.19592395
C        2.45241981      -0.02921799      -0.00553601
C        3.20942894       1.11179424       0.72750863
N        4.51031969       0.57712839       1.16507999
C        4.19025698      -0.81644110       1.52326412
C        3.14872386      -1.33021885       0.50128035
O        3.73063932      -2.10833935      -0.55985128
H        0.44843772      -0.82877201      -0.34247003
H        0.50049422       0.93829934      -0.16756413
H        0.68228783      -0.09676591       1.26350380
H        2.66154252       0.03749164      -1.08791775
H        2.64267856       1.40910761       1.62919867
H        3.34266906       2.01294075       0.11265165
H        5.16291373       0.58308856       0.37464317
H        5.08664014      -1.45040247       1.55341041
H        3.74380636      -0.81265686       2.53374437
H        2.42859441      -2.01841735       0.96911466
H        4.32957599      -1.52502179      -1.06078458
