15
Properties=species:S:1:pos:R:3 -1598.8517540829705=T 11.57785=T 13.14894=T -9.1521=T -7.0476=T -9.599=T 1.1381=T -0.6598=T 0.212=T 9.56187=T 0.55196=T 3.7198527692=T 10.1851027392=T 0.564703288=T pbc="F F F"
C        1.00477698      -0.00392253      -0.13763358
C        2.45768248       0.00161807      -0.05178262
C        3.67166518       0.00152303       0.02345679
C        5.12289612       0.01887052       0.12409609
C        5.83206925       1.33566969      -0.26844200
C        5.14974390       2.22203460      -1.28044551
O        6.91900890       1.59870820       0.21861079
H        0.60557401       1.01932805      -0.20568297
H        0.55804504      -0.47699647       0.74958417
H        0.65896196      -0.55841132      -1.02282208
H        5.55614365      -0.75071484      -0.54241945
H        5.46305918      -0.23632082       1.13932451
H        4.82887083       1.63624033      -2.15454967
H        5.82210838       3.03200499      -1.58075108
H        4.23054414       2.63694851      -0.83957338
