16
Properties=species:S:1:pos:R:3 -1637.0637645851211=T 11.85598=T 12.17921=T -8.6863=T -6.7476=T -9.184=T 0.9777=T -0.6383=T -0.012=T 8.57161=T 0.61132=T 4.2470288426=T 5.231713256=T 0.379417745=T pbc="F F F"
C        2.61053623      -0.50529845       1.38208314
C        2.50860370       0.15102979      -0.00508064
C        2.92597009       1.60203377      -0.03094494
C        2.03346355       2.60604842      -0.13094141
N        4.29853920       1.89583544       0.09146938
C        5.37604923       1.04120879       0.06596420
O        6.53810232       1.42193406       0.14370481
H        2.26454223      -1.54719722       1.33654902
H        1.98505339       0.03182256       2.10835019
H        3.63894668      -0.51100996       1.76828214
H        1.46576717       0.11092702      -0.34923100
H        3.09278999      -0.42604943      -0.74072668
H        0.97110994       2.38828335      -0.21703038
H        2.33658027       3.65397950      -0.12594571
H        4.55760810       2.88167356       0.15857591
H        5.09575791      -0.02720120      -0.03299803
