20
Properties=species:S:1:pos:R:3 -1944.0747648249617=T 13.222485=T 14.46775=T -8.781=T -6.6305=T -8.683=T 0.8894=T -0.024=T 1.496=T 8.11=T -0.80516=T 6.0304806624=T 0.386975335=T pbc="F F F"
C        0.52522554      -0.39869105       0.23694689
C        1.97958913      -0.03418531       0.22500392
C        2.54029384       1.17199541       0.00742708
C        1.76090632       2.42931415      -0.28426015
C        4.04454297       1.33037634       0.04057843
C        4.56393653       2.17114204       1.21743437
N        6.02662561       2.31140027       1.13411264
H        0.31705096      -1.20259821      -0.48804979
H       -0.13521375       0.44528097       0.00039390
H        0.22545057      -0.78804349       1.22403003
H        2.66443157      -0.86912398       0.41783050
H        0.68884302       2.24609505      -0.42162519
H        2.14249122       2.91502455      -1.19725001
H        1.86811574       3.16644813       0.52821657
H        4.39815610       1.80660102      -0.89097512
H        4.51442604       0.33324253       0.08621515
H        4.20293175       1.71558885       2.16213214
H        4.13532484       3.18473142       1.16768384
H        6.46875658       1.39884027       1.27716219
H        6.36215541       2.90823103       1.89372259
