20
Properties=species:S:1:pos:R:3 -1942.3862219097123=T 12.948838=T 13.99889=T -9.0463=T -6.7847=T -9.146=T 0.8798=T -0.0709=T 1.42=T 8.53021=T -0.78293=T 6.376475994=T 0.406739109=T pbc="F F F"
C        2.47881241      -1.28794775      -1.60642287
C        2.39954634      -0.65314718      -0.24224847
C        1.58559532      -1.13247428       0.71176023
C        3.25922011       0.57066566      -0.00980929
C        4.77792253       0.34562792      -0.14072903
C        5.34254592      -0.64821393       0.87302675
N        6.80930347      -0.71822700       0.76049742
H        2.23605594      -0.55579358      -2.39431128
H        1.78664518      -2.13513181      -1.69723807
H        3.49477639      -1.65465400      -1.82378505
H        0.95128540      -2.00425447       0.53727984
H        1.52631459      -0.66309993       1.69606286
H        3.03880964       0.98063060       0.98917528
H        2.96661322       1.34709329      -0.73940071
H        5.29784411       1.30781751      -0.01104229
H        5.02019708       0.00249975      -1.16220640
H        4.83226899      -1.62475743       0.75272853
H        5.10257888      -0.29569619       1.89073910
H        7.06472281      -1.11710840      -0.14751620
H        7.18051168      -1.36217878       1.46271965
