17
Properties=species:S:1:pos:R:3 -1805.5723275232947=T 12.311338=T 12.77744=T -8.2054=T -6.2397=T -8.171=T 0.7832=T -0.729=T 0.722=T 7.70552=T -0.15456=T 4.6237603036=T 7.2583016218=T 0.621038741=T pbc="F F F"
C        0.93027790      -0.00151514       0.05759848
C        2.47671658       0.00006491       0.08741661
C        2.98088077       0.00303670       1.54964884
C        3.03766334       1.17542776      -0.68698869
C        3.79040882       0.73286859      -1.72045178
C        3.79183223      -0.73637971      -1.71798715
C        3.03987647      -1.17685486      -0.68302373
H        0.55960491      -0.00257612      -0.97651932
H        0.53389383       0.88833035       0.56891798
H        0.53572728      -0.89151216       0.57007016
H        4.07887081       0.00325533       1.58418707
H        2.61557594      -0.88586322       2.08518846
H        2.61533689       0.89396850       2.08163537
H        2.84019119       2.21333273      -0.41878353
H        4.31727662       1.35238036      -2.44662592
H        4.31990782      -1.35733778      -2.44202301
H        2.84435859      -2.21420625      -0.41127984
