19
Properties=species:S:1:pos:R:3 -1815.444814436829=T 12.006224=T 13.11853=T -8.3288=T -6.2089=T -9.666=T 0.7803=T -0.1885=T 2.958=T 9.29529=T -2.59553=T 7.7907471002=T 12.791263662=T 0.152419494=T pbc="F F F"
C        2.68078924      -1.25920435      -0.45810029
C        2.22109052       0.03285863       0.22574803
C        3.28582414       1.11969898       0.27828919
N        4.47989293       0.88458865       1.07101746
C        3.52279675       1.95992459      -0.96789367
C        2.84776063       2.58714863       0.22347501
N        3.52468480       3.64351801       0.94358566
H        1.87359057      -2.00510527      -0.48658545
H        3.53010761      -1.71664975       0.07208219
H        2.99753863      -1.06580665      -1.49434752
H        1.88898018      -0.19002229       1.25666608
H        1.33492787       0.42880629      -0.29904997
H        4.22306544       0.56719497       2.01073037
H        5.05127908       0.14542004       0.65398394
H        2.93217612       1.74751932      -1.86070396
H        4.55181985       2.27021603      -1.16028268
H        1.77147080       2.75835666       0.13294318
H        4.47764624       3.31820471       1.14376301
H        3.07820860       3.76432280       1.85820941
