16
Properties=species:S:1:pos:R:3 -1541.81873999289=T 10.703531=T 11.41029=T -9.7183=T -7.6211=T -10.818=T 1.2457=T -0.4687=T 0.331=T 10.32788=T 0.28472=T 5.464930922=T 6.6465051034=T 0.198893845=T pbc="F F F"
C        1.04198674       0.15711614       0.23874800
C        2.55600114      -0.02132771       0.11922141
C        3.07211804      -1.08857424       1.08865199
O        2.90939055      -0.51549762      -1.20097087
C        3.32870815       1.26377853       0.33163347
N        2.72853030       2.37032633       0.56545939
O        3.65440803       3.43637660       0.69323643
H        0.67496788       0.91166240      -0.47080975
H        0.75974969       0.48919044       1.24675927
H        0.55208183      -0.80245807       0.02575730
H        2.86016737      -0.80161108       2.12716148
H        4.15590220      -1.22407744       0.97122664
H        2.57887237      -2.04678739       0.87444968
H        2.57343322       0.13078642      -1.84866426
H        4.42320139       1.20912989       0.24432170
H        3.06658110       4.19190681       0.87586811
