15
Properties=species:S:1:pos:R:3 -1518.2248021338603=T 11.293898=T 11.85004=T -9.3445=T -7.258=T -9.875=T 0.7268=T -0.9466=T -0.198=T 9.36474=T 0.77348=T 4.1408720294=T 5.4692952292=T 0.390160121=T pbc="F F F"
N        3.80453479      -0.93465906       0.80848719
C        2.75625412      -0.20370567       0.09152068
C        3.06702717       1.24672742      -0.10309276
C        4.21918935       1.85177080       0.22170990
C        4.40292927       3.31087154      -0.02131985
N        5.65522333       3.78578893       0.31466176
O        3.52275879       4.05576088      -0.45601480
H        3.59894123      -1.93500884       0.79618312
H        3.80955326      -0.65361547       1.79278696
H        1.75030266      -0.27041497       0.55911884
H        2.63774038      -0.66308506      -0.90689267
H        2.27674967       1.86621815      -0.54098678
H        5.04141358       1.27010597       0.64736685
H        6.42638484       3.14802370       0.47951118
H        5.87423755       4.73917167       0.04188039
