15
Properties=species:S:1:pos:R:3 -1526.0791488693462=T 9.860337=T 11.23539=T -9.723=T -7.5385=T -11.27=T 0.85=T -0.1221=T 2.601=T 10.97206=T -2.23913=T 8.8069239576=T 10.927382124=T 0.164171047=T pbc="F F F"
O        1.21930424      -0.20669311       0.19116083
C        2.60347715      -0.13102912      -0.06344172
C        3.06158956      -0.64044874      -1.39066215
C        3.13410997       0.84710551      -1.10057592
C        4.42068503       1.56892689      -0.87687853
C        5.72105544       0.90409953      -0.67799825
O        5.42211359       1.54694022      -1.92847489
H        0.98836509       0.51276288       0.80535259
H        3.24798439      -0.33067832       0.80066690
H        2.28107316      -0.95484200      -2.08324634
H        3.98249458      -1.22117423      -1.43986066
H        2.35864009       1.44143175      -1.59048772
H        4.30820870       2.56364527      -0.42523347
H        5.79163327      -0.18813954      -0.72098193
H        6.48467573       1.39629301      -0.06516874
