14
Properties=species:S:1:pos:R:3 -1427.8352054351144=T 10.843064=T 11.31122=T -9.0607=T -7.2458=T -9.814=T 0.5384=T -1.3095=T -0.461=T 8.86046=T 0.83002=T 4.5818902314=T 11.1855085774=T 0.227167829=T pbc="F F F"
C        0.99847974      -0.03657823       0.17326318
N        2.45033924       0.02547476       0.12888743
C        3.15462911      -1.22062753      -0.16087821
C        3.03565186       1.26734280      -0.03929461
N        2.48408971       2.43428393      -0.12026971
C        4.49360356       1.25864000      -0.07843511
N        5.65963495       1.26310313      -0.11761728
H        0.60547585       0.69079015       0.89820829
H        0.70037022      -1.03861928       0.50375271
H        0.53744478       0.15809139      -0.81207579
H        2.87705947      -1.98219975       0.58131026
H        4.23656592      -1.06132959      -0.10359677
H        2.90958651      -1.60035115      -1.16771366
H        1.45906908       2.36946937      -0.11766072
