14
Properties=species:S:1:pos:R:3 -1470.129157437768=T 10.829232=T 11.79203=T -10.2979=T -7.9837=T -9.929=T 1.1613=T -0.6376=T 1.01=T 9.41034=T -0.53909=T 5.3957591326=T 6.7858281716=T 0.475346757=T pbc="F F F"
C        0.79420372      -0.20982847       1.73269838
C        1.54152204      -0.12468894       0.62814895
C        2.55334100       0.94811856       0.38858375
O        3.81926995       0.32325381       0.08278450
C        4.83363630       1.26275460      -0.21660841
C        4.59551896       2.00188761      -1.47173980
N        4.38963911       2.58205831      -2.46240368
H        0.03706059      -0.98597369       1.84949116
H        0.90778215       0.50146631       2.55456696
H        1.41838303      -0.84894904      -0.18269364
H        2.65892977       1.59940216       1.27714953
H        2.24497539       1.57883077      -0.46780821
H        5.77074530       0.69603252      -0.31523384
H        4.96464270       2.00308550       0.59671436
