15
Properties=species:S:1:pos:R:3 -1572.6158474736674=T 10.500205=T 11.28625=T -9.8128=T -7.7437=T -10.144=T 0.8164=T -0.8502=T 0.01=T 10.15907=T 0.60082=T 4.2628122604=T 6.4168830314=T 0.247240641=T pbc="F F F"
C        0.72730084      -0.15693776       0.07394630
C        2.23283699       0.07056499      -0.10377761
C        2.76990316      -0.56300494      -1.36006162
C        3.84776742      -1.35793949      -1.42394084
C        2.57124513       1.58008411      -0.01986363
O        3.74167562       1.94682696      -0.61401701
O        1.89320650       2.39233800       0.56773078
H        0.36915055       0.36599629       0.96864745
H        0.51157056      -1.22895062       0.16897664
H        0.16930569       0.23457612      -0.78860598
H        2.76808702      -0.36962948       0.75855051
H        2.22258293      -0.32798295      -2.28117730
H        4.41108727      -1.62978051      -0.52694443
H        4.19274570      -1.77476775      -2.37118720
H        4.10549461       1.15610702      -1.07140606
