19
Properties=species:S:1:pos:R:3 -1807.3217779965817=T 12.12104=T 13.29372=T -8.4757=T -6.3509=T -9.842=T 0.8879=T -0.049=T 3.192=T 9.4109=T -2.84016=T 7.8518597996=T 11.5435181524=T 0.151815282=T pbc="F F F"
C        0.94020695       1.00059798       0.45350379
N        2.38557911       0.84505701       0.60004729
C        3.14471230       1.61991232      -0.38605548
C        4.63135799       1.50614582      -0.12189465
N        4.98907056       2.09102483       1.15866290
C        5.35761312       0.28833094      -0.68665272
C        5.58154810       1.67585497      -1.27025823
H        0.42318596       0.34364808       1.16655315
H        0.55957781       0.77598958      -0.56557409
H        0.65912206       2.03770017       0.69185066
H        2.63323489      -0.14278628       0.49465739
H        2.84916296       2.67752986      -0.27978054
H        2.92851118       1.32048979      -1.43488944
H        5.96257583       1.88223901       1.39032514
H        4.40385468       1.65266371       1.87760288
H        4.80488779      -0.43581557      -1.28999568
H        6.16163578      -0.14239419      -0.08719420
H        6.53220093       2.16860030      -1.05837296
H        5.17483200       1.89207169      -2.25982523
