19
Properties=species:S:1:pos:R:3 -1807.9321470031855=T 12.24484=T 13.63913=T -8.6414=T -6.502=T -9.901=T 0.8955=T -0.0241=T 3.365=T 9.48067=T -3.12143=T 7.9626164934=T 12.0382098938=T 0.177229741=T pbc="F F F"
C        1.00159493       0.51958689       0.40946225
C        2.50139717       0.54153630       0.68052199
N        3.17497476       1.54290050      -0.15574481
C        4.59562935       1.62243975       0.06356254
C        5.47918266       0.67893836      -0.73630543
C        5.47679887       2.14719660      -1.05763242
N        6.67631018       2.93068851      -0.84840090
H        0.50739527      -0.25521228       1.01221601
H        0.80155109       0.31844338      -0.65242815
H        0.53657130       1.48464505       0.66556793
H        2.94233997      -0.43912223       0.43646608
H        2.68342059       0.70503152       1.76563818
H        2.74715445       2.46008772       0.00400714
H        4.95333492       1.84178868       1.08395243
H        4.98188459       0.00630090      -1.43561866
H        6.36082252       0.26575776      -0.24215827
H        4.93436034       2.42210336      -1.96633622
H        7.26137449       2.50407032      -0.12723501
H        6.43787254       3.86945891      -0.51715468
