18
Properties=species:S:1:pos:R:3 -1750.0648194369703=T 11.775544=T 12.63577=T -9.5988=T -7.39=T -9.585=T 1.0429=T -0.1635=T 1.238=T 9.05023=T -0.67596=T 6.6356191326=T 0.445566369=T pbc="F F F"
N        0.72248755      -0.13318106      -0.49320801
C        2.18573199      -0.27899487      -0.36674765
C        2.59820162      -1.44414556      -1.28403924
O        2.07417156      -1.27542790      -2.59487396
C        2.86412302       1.04161806      -0.78281418
C        2.50571569       2.18650588       0.11815334
C        1.83577560       3.28391268      -0.25724002
H        0.42875577       0.78395881      -0.14754478
H        0.23860581      -0.83816218       0.06734772
H        2.50693499      -0.52381958       0.66668312
H        2.24343830      -2.39537931      -0.83534992
H        3.69509941      -1.50273916      -1.36264522
H        1.18411999      -0.88799224      -2.43338822
H        2.59274490       1.27039845      -1.82503294
H        3.95484036       0.87824799      -0.75592163
H        2.81380018       2.08909208       1.16696512
H        1.51398234       3.42582774      -1.29232703
H        1.60008093       4.08045019       0.45039350
