10
Properties=species:S:1:pos:R:3 -1108.2729183204767=T 8.474744=T 8.87945=T -9.7431=T -7.8235=T -9.784=T 0.913=T -0.8423=T -0.388=T 9.21728=T 0.84137=T 4.994094087=T 11.5386702998=T 0.504495122=T pbc="F F F"
C        1.89708273       0.39776403       0.54764928
O        1.55651803       0.48254016      -0.92771818
C        2.51479341       1.47965622      -1.00128671
N        3.09147363       2.31025291      -1.83291382
O        4.00381997       2.97098196      -0.91957214
C        3.87248474       2.46493578       0.35387083
C        2.92075063       1.50015694       0.34082797
H        2.28544455      -0.60131255       0.77770770
H        1.01199745       0.64888829       1.14390920
H        4.53140486       2.92068626       1.08654588
