13
Properties=species:S:1:pos:R:3 -1393.5564971683418=T 11.008271=T 12.34518=T -9.9404=T -7.9227=T -10.313=T -0.1333=T -1.9996=T -0.758=T 9.83098=T 1.35506=T 3.4905530608=T 10.4394848154=T 0.698225628=T pbc="F F F"
O        0.92299611       0.10597874       0.01311588
C        2.34616921      -0.02371376       0.01478485
C        2.91203626       1.40104393       0.00102271
C        4.36142831       1.44004558       0.00045738
C        5.58149749       1.48299853      -0.00018982
C        7.01880661       1.47823486       0.00000456
O        7.71552563       2.48581951       0.00439940
H        0.53648149      -0.78551961       0.02338504
H        2.70583322      -0.57120513      -0.87463963
H        2.70528231      -0.55365704       0.91498693
H        2.52897325       1.95060314       0.87740069
H        2.52931325       1.93314992      -0.88625631
H        7.47420686       0.45825134      -0.00474169
