14
Properties=species:S:1:pos:R:3 -1478.6645925878063=T 12.771324=T 13.37333=T -8.8633=T -6.9511=T -8.541=T 0.718=T -0.7938=T 0.077=T 8.04519=T 0.62978=T 4.3416921536=T 10.643268205=T 0.191779198=T pbc="F F F"
C        0.87249473      -0.12406713       0.06374542
C        2.40289283      -0.03031081      -0.04482849
C        2.89530884       1.38661406      -0.05263127
N        3.01767456       2.13992640       1.01318352
C        3.44137513       3.40609075       0.68785642
C        3.65198927       3.64781795      -0.64613359
S        3.30613313       2.21668181      -1.55497867
H        0.55298623      -1.17483098       0.10430749
H        0.38519492       0.35010714      -0.79999881
H        0.52101080       0.38074632       0.97356527
H        2.75141033      -0.54878921      -0.95060453
H        2.86813840      -0.53375322       0.81628525
H        3.59254850       4.13836712       1.48039699
H        3.99177232       4.55777980      -1.13154498
