17
Properties=species:S:1:pos:R:3 -1692.5799752827268=T 10.674345=T 11.74682=T -9.6533=T -7.4815=T -10.969=T 1.0731=T -0.8813=T -0.015=T 10.05087=T 0.64173=T 3.7204850978=T 7.8951557108=T 0.094469144=T pbc="F F F"
C        1.15484717      -0.33986878       0.29890092
C        2.52428020       0.00855127      -0.29303013
C        2.79906520      -0.83704498      -1.54604631
O        4.12975054      -0.67604492      -2.04907836
C        2.62559415       1.51619070      -0.60267405
C        4.00829848       1.97137628      -1.00001185
O        4.27525422       2.55900671      -2.03662004
H        0.96862862       0.21863818       1.22698932
H        1.08629223      -1.41231640       0.53305518
H        0.34360143      -0.09725972      -0.40534925
H        3.30704704      -0.24775157       0.44352769
H        2.04681288      -0.61046094      -2.32449110
H        2.69543464      -1.90365192      -1.29061777
H        4.13993528       0.06937288      -2.67409109
H        2.36977995       2.07559011       0.31621235
H        1.91181905       1.81184866      -1.38820017
H        4.80909894       1.75666444      -0.24622536
