17
Properties=species:S:1:pos:R:3 -1651.340371296169=T 10.610409=T 11.32507=T -8.2669=T -6.2328=T -9.667=T 1.0027=T 0.0632=T 3.381=T 8.88714=T -3.11013=T 7.8016702668=T 12.17976471=T 0.175920945=T pbc="F F F"
C        1.07627636      -0.00727963      -0.12246603
N        2.50695409      -0.04126357       0.12425022
C        2.99655015       1.08706743       0.92042039
C        4.42889095       0.67291291       1.29819532
C        4.39782006      -0.88253316       1.26391621
C        2.95060030      -1.22212831       0.86933676
H        0.77899709      -0.87755010      -0.72562480
H        0.81442786       0.90024519      -0.68574948
H        0.47825296      -0.01646655       0.81806730
H        2.37977970       1.22616159       1.84039275
H        2.94694562       2.02130330       0.34062119
H        5.14885600       1.06048808       0.56491502
H        4.71475620       1.06683864       2.28287993
H        5.10304972      -1.26622513       0.51412111
H        4.66623952      -1.33036505       2.23037158
H        2.86435742      -2.12729436       0.24896948
H        2.32784599      -1.37727129       1.78293305
