12
Properties=species:S:1:pos:R:3 -1252.4455870688912=T 9.462177=T 9.80508=T -9.5903=T -7.517=T -10.278=T -0.1488=T -1.9423=T -0.862=T 9.5949=T 1.4281=T 3.4339658504=T 5.4165515848=T 0.582152369=T pbc="F F F"
O        2.22745959      -0.68157425       1.41132801
C        2.66392883      -0.18625085       0.14085114
C        3.16347349       1.20871132       0.32378479
C        4.21577740       1.75055504      -0.31643274
C        4.57837446       3.15792421      -0.10930946
O        5.50336164       3.72593521      -0.67405586
H        1.78578788      -1.53497719       1.26526022
H        1.81941524      -0.15394640      -0.57782676
H        3.45157248      -0.82374090      -0.30061987
H        2.58361359       1.82443522       1.02237599
H        4.83647638       1.17754669      -1.01165540
H        3.93153903       3.70110190       0.62889993
