17
Properties=species:S:1:pos:R:3 -1749.2914568682893=T 12.58756=T 13.30803=T -9.3849=T -7.3678=T -10.05=T -0.0158=T -1.7084=T -0.738=T 9.43163=T 1.3504=T 3.4599161202=T 5.3166064702=T 0.608711083=T pbc="F F F"
C        0.83189196      -0.44614473       0.00848079
C        2.31349848      -0.02919762      -0.05408686
C        3.09655094      -0.92542022      -1.03144515
C        2.42842740       1.40833475      -0.46133668
C        2.95047741       2.40995831       0.27329313
C        2.99831362       3.78058918      -0.24477010
O        3.45204102       4.74180685       0.36315136
H        0.27396306       0.16796240       0.72856042
H        0.74423215      -1.49936572       0.31228575
H        0.35106233      -0.33848921      -0.97619999
H        2.75136621      -0.14083112       0.95242907
H        2.69510324      -0.83772318      -2.05302370
H        3.01859569      -1.97977764      -0.72903901
H        4.16057330      -0.65316538      -1.05949694
H        2.04060605       1.65295657      -1.46147983
H        3.35496420       2.24554968       1.27672835
H        2.57467294       3.90100708      -1.27767059
