17
Properties=species:S:1:pos:R:3 -1657.7888889678318=T 10.926929=T 11.88927=T -8.9005=T -6.9149=T -10.369=T 0.7305=T -0.3042=T 0.686=T 9.42533=T 0.00747999999999=T 4.3567688512=T 6.318698518=T 0.135366117=T pbc="F F F"
C        1.47707323      -0.61577722       0.13890520
N        2.69538662       0.16819827       0.16911751
C        3.83875595      -0.21684018      -0.46069059
O        3.95592004      -1.24088573      -1.13947502
C        5.03746598       0.73534082      -0.22131693
C        5.86347549       0.88631146      -1.50146755
N        4.60176947       2.00766461       0.39250409
H        1.20312898      -0.97025969       1.14407138
H        1.65801379      -1.48391653      -0.50657236
H        0.63895226      -0.03250332      -0.27066785
H        2.77815059       1.02688310       0.71680762
H        5.65029502       0.21224646       0.53324851
H        5.30040585       1.45643553      -2.25721040
H        6.09073825      -0.09887707      -1.92767651
H        6.80336001       1.41764027      -1.29590802
H        4.37462252       2.68132667      -0.34517367
H        5.36938597       2.42059254       0.92536461
