14
Properties=species:S:1:pos:R:3 -1394.9200172593407=T 9.428509=T 9.95832=T -9.4568=T -7.4788=T -10.755=T 1.2282=T -0.5748=T 0.269=T 10.25144=T 0.34244=T 5.16959627=T 6.5930423402=T 0.232537874=T pbc="F F F"
C        0.85124739      -1.12139089       0.59232658
C       -0.36543314      -1.44507041      -0.27239551
C       -1.47119046      -0.41505181      -0.22393625
N       -1.47245866       0.83790931       0.06766439
O       -0.21576103       1.46497456       0.32456990
C        0.88257037       1.00340811      -0.46837479
O        1.64545907      -0.02845524       0.11248060
H        1.52757675      -1.98720426       0.62748291
H        0.51929434      -0.90242574       1.62198990
H       -0.79519136      -2.39181031       0.09340015
H       -0.06626256      -1.64305967      -1.31624038
H       -2.48772984      -0.77353715      -0.42551857
H        1.56095127       1.86208554      -0.56105240
H        0.48729784       0.71373796      -1.45970654
