17
Properties=species:S:1:pos:R:3 -1708.044009931809=T 12.042487=T 13.48197=T -9.6999=T -7.4645=T -9.837=T 0.9355=T -0.0769=T 2.313=T 9.72396=T -1.91229=T 4.4111863066=T 10.9743356222=T 0.495614504=T pbc="F F F"
C        0.87983380      -0.82450644       0.73144449
C        2.01310315      -0.90130221      -0.28245550
C        2.74177445      -2.24551692      -0.23480723
O        1.40997628      -0.65418800      -1.57006741
C        2.36130972      -0.34168994      -2.58759035
C        1.67289023       0.08486078      -3.79880275
C        1.13606699       0.44194231      -4.82582582
H        0.37768477       0.15002567       0.67445016
H        1.26606939      -0.96384228       1.75053285
H        0.13650236      -1.60964105       0.53061907
H        2.73977921      -0.08662587      -0.07955198
H        2.04183968      -3.06378051      -0.45939201
H        3.16204234      -2.41309185       0.76744791
H        3.57416828      -2.29362587      -0.95048401
H        2.99928617      -1.21435306      -2.82863759
H        3.03632216       0.46961507      -2.24436331
H        0.65125104       0.75737017      -5.72705654
