16
Properties=species:S:1:pos:R:3 -1600.4980243784153=T 10.614176=T 11.42439=T -9.1298=T -7.0313=T -10.311=T 1.1005=T -0.4245=T 0.459=T 9.89356=T 0.14207=T 5.4187213398=T 9.4854373426=T 0.14949344=T pbc="F F F"
C        2.36513454      -0.48961659      -1.61890912
C        2.46353011       0.01756372      -0.17938372
C        3.37998925       1.24364491      -0.01245889
C        3.50949893       1.74273907       1.43719585
O        3.29623845       3.19357324       1.39147423
N        2.84504534       3.54414598       0.11061345
C        2.87684515       2.51340784      -0.65562200
H        1.74009160      -1.39153223      -1.67521142
H        3.35744652      -0.74670363      -2.01988637
H        1.91856968       0.26080078      -2.28735818
H        2.84871781      -0.78905900       0.46616779
H        1.46131788       0.27145798       0.20395414
H        4.36938066       0.99578047      -0.44127525
H        4.49724282       1.57038274       1.88396582
H        2.73062568       1.30984432       2.08756120
H        2.57726559       2.63211040      -1.69632753
