13
Properties=species:S:1:pos:R:3 -1370.876087945129=T 10.439107=T 10.32728=T -7.7926=T -5.9154=T -8.623=T 1.3775=T -0.2811=T 0.558=T 8.09955=T -0.06145=T 4.8302341894=T 4.96129979=T 0.13191224=T pbc="F F F"
N        0.87461979      -0.11480408       0.27273864
C        2.14415330      -0.05347967       0.06286204
C        2.98222907       1.20288647      -0.12862411
O        4.29303530       1.12341383       0.46749271
C        4.95086774      -0.04809549       0.15506120
C        4.28356358      -1.18239495      -0.12116688
N        2.88253095      -1.20562451      -0.09554237
H        0.47666772       0.82890042       0.33327390
H        2.48787625       2.06101773       0.34118787
H        3.09040528       1.39533504      -1.21359688
H        6.03476229       0.03236421       0.18746962
H        4.79263599      -2.10851287      -0.37281960
H        2.37764274      -2.08478613      -0.01980615
