13
Properties=species:S:1:pos:R:3 -1339.7270321251503=T 10.553611=T 11.90289=T -9.1163=T -6.907=T -9.121=T 0.9178=T -0.084=T 2.341=T 8.72634=T -1.8628=T 4.1410332112=T 12.1827651712=T 0.434449211=T pbc="F F F"
C        0.96394458       0.00942165       0.01353213
C        2.41790879      -0.02274152       0.01107828
C        3.63433005      -0.03615992      -0.00462716
C        5.07157179      -0.07497211       0.00726805
C        5.86125096      -0.71297695      -1.09503443
N        5.79646384       0.75481667      -1.00298115
H        0.59081079       1.00626077      -0.26572681
H        0.56432425      -0.22994844       1.01028081
H        0.54562910      -0.71755751      -0.69894010
H        5.52031838      -0.13921332       1.00426235
H        5.31896778      -1.13617821      -1.94274997
H        6.78247829      -1.23227963      -0.81779972
H        6.65560140       1.11039852      -0.56996228
