14
Properties=species:S:1:pos:R:3 -1495.0784581353757=T 9.873779=T 10.97155=T -10.288=T -8.1402=T -11.763=T 0.8025=T -0.3062=T 1.335=T 11.31036=T -0.93277=T 5.3574598572=T 10.8097070114=T 0.242016303=T pbc="F F F"
N        0.96977573      -0.09690995       0.57917013
C        2.10257547      -0.04993712       0.30136229
C        3.52044339      -0.00966671      -0.02882905
C        4.28613488       1.20588386       0.58804738
C        5.47303114       0.54020421       1.31519668
O        5.63431979      -0.74688148       0.70317931
C        4.31171845      -1.23305112       0.52383249
H        3.61158714       0.01149906      -1.12491565
H        3.65196140       1.77964103       1.27492324
H        4.62349486       1.87793168      -0.21047252
H        6.42105799       1.08145659       1.20616823
H        5.24980866       0.41869336       2.39190645
H        4.34253858      -2.07970929      -0.17253957
H        3.87063252      -1.56172413       1.48422058
