14
Properties=species:S:1:pos:R:3 -1419.4599207871381=T 10.263485=T 10.76338=T -9.5213=T -7.5772=T -10.969=T -0.1016=T -1.9005=T -1.33=T 9.94543=T 1.69432=T 3.26765103=T 5.6032249064=T 0.272133619=T pbc="F F F"
C        1.63435003      -0.46912850      -1.00606696
C        1.63794193       0.68890072      -0.03436215
O        0.69912404       0.90067062       0.72794050
C        2.82372698       1.61685929      -0.01682839
C        2.82465375       2.80067540       0.89554560
N        3.78088448       1.29314861      -0.82749907
O        4.84534893       2.20431408      -0.75479100
H        1.53703366      -0.08842238      -2.03360927
H        0.78407356      -1.11949024      -0.77607529
H        2.57779804      -1.02807481      -0.96783581
H        1.90374131       2.80749207       1.48731036
H        2.90150555       3.73077017       0.31373498
H        3.69983179       2.77071677       1.55996045
H        5.47521596       1.83246820      -1.39947397
