16
Properties=species:S:1:pos:R:3 -1639.0385265735995=T 11.383291=T 12.21473=T -9.2213=T -7.3287=T -9.908=T 0.7714=T -0.8421=T -0.086=T 9.39078=T 0.60142=T 4.181799808=T 5.6055558432=T 0.240608432=T pbc="F F F"
C        2.40562078       3.40619948       1.08175215
N        3.76419073       2.96872850       0.81386428
C        4.04659694       1.88089236       0.02622657
O        3.17633676       1.19174712      -0.51391235
C        5.51456858       1.57138822      -0.14688463
C        5.84814256       0.10891970      -0.21178334
C        6.41876809       2.54989518      -0.32224657
H        2.25682701       4.45246974       0.77499134
H        2.15620766       3.30779041       2.14920422
H        1.73589260       2.76236775       0.49905132
H        4.53533341       3.40272461       1.31045489
H        5.23042557      -0.37727855      -0.98005441
H        5.61121679      -0.39072372       0.74055391
H        6.90958735      -0.04841419      -0.43938356
H        6.13513822       3.60376290      -0.33727045
H        7.47096695       2.31962048      -0.50149340
