18
Properties=species:S:1:pos:R:3 -1723.1660538551332=T 10.408923=T 11.43212=T -9.9188=T -7.731=T -11.818=T 0.8788=T -0.0897=T 2.762=T 11.32334=T -2.45173=T 9.4928517054=T 10.3480823362=T 0.111482669=T pbc="F F F"
C        0.89577191      -0.09918330       0.00011834
C        2.41969815       0.04987302       0.00531751
C        2.97429671       1.49166190      -0.00440524
C        2.58232432       2.24586386      -1.27586255
C        2.55518857       2.27426460       1.24697516
O        4.42286138       1.41992107      -0.06020965
H        0.61534837      -1.16212771       0.00626167
H        0.44495177       0.35142335      -0.89582070
H        0.43244973       0.36571056       0.88239761
H        2.84949109      -0.46754286      -0.86764307
H        2.82624235      -0.45851317       0.89891388
H        2.90389340       1.68691709      -2.16596901
H        3.07425045       3.22823614      -1.29171962
H        1.49685256       2.40217325      -1.32930932
H        2.85544640       1.73897120       2.16206539
H        1.46719311       2.42730439       1.28957784
H        3.04232755       3.25912338       1.24973997
H        4.71931217       0.92728323       0.72600179
