16
Properties=species:S:1:pos:R:3 -1647.4164867045415=T 13.772398=T 14.97218=T -8.7859=T -6.6794=T -8.516=T 0.7779=T -0.8131=T 0.593=T 8.07844=T -0.04443=T 3.8134498006=T 11.653506133=T 0.619999307=T pbc="F F F"
N        0.91964754       0.00996450      -0.01276894
C        2.38697512      -0.03381303      -0.03935273
C        2.94895699       1.40012479      -0.01028743
C        4.40322103       1.44956286      -0.00253039
C        5.62328787       1.49081845       0.00278739
C        7.04118622       1.49377571       0.00904508
C        7.81381969       2.59821549      -0.00289669
H        0.54481551      -0.93227698       0.11299632
H        0.56139242       0.34049285      -0.91291388
H        2.81869696      -0.56547979      -0.90942399
H        2.72977618      -0.56330666       0.86229235
H        2.54322201       1.91817386       0.87493576
H        2.57160317       1.95588517      -0.88794837
H        7.52274728       0.50948579       0.02452307
H        7.37681538       3.59737024      -0.01836568
H        8.90055661       2.51667675       0.00257812
