10
Properties=species:S:1:pos:R:3 -1105.7808043019568=T 11.810377=T 11.26214=T -9.73=T -7.847=T -10.269=T -1.1916=T -2.9499=T -1.828=T 9.75051=T 2.16273=T 3.0979017974=T 6.0014679384=T 0.385224207=T pbc="F F F"
O        0.91430206       0.11605063       0.00000000
N        2.28741330      -0.10251795       0.00000000
C        2.92377705       1.03136775       0.00000000
C        4.33073866       1.02979762       0.00000000
C        5.55019947       1.13908514       0.00000000
C        6.98515374       1.17400512       0.00000000
O        7.64824218       2.20512863       0.00000000
H        0.55613668      -0.79191904       0.00000000
H        2.38385468       1.98716357       0.00000000
H        7.46634217       0.16743854       0.00000000
