15
Properties=species:S:1:pos:R:3 -1466.2254025064885=T 13.526367=T 12.64947=T -7.5297=T -5.6883=T -8.549=T 0.9759=T -0.5655=T -0.25=T 7.95926=T 0.84043=T 4.589651755=T 0.552959822=T pbc="F F F"
C        1.79330536      -0.69939430       0.23889394
O        3.13905965      -0.42647320      -0.15482114
N        3.37181198       0.96386045      -0.00743877
C        4.58641313       1.25149127      -0.36034933
C        5.06812765       2.60256602      -0.31025062
C        6.33286338       2.93058888      -0.68293720
N        6.90707420       4.18491594      -0.59483104
H        1.66269437      -1.78055818       0.10450944
H        1.07627745      -0.15412386      -0.39519767
H        1.62612751      -0.43016132       1.29388616
H        5.26216550       0.45532495      -0.70858733
H        4.37439273       3.36946451       0.04576187
H        7.01449474       2.15110339      -1.03482299
H        6.27395015       4.97211734      -0.47808084
H        7.68253219       4.37873811      -1.21985448
