15
Properties=species:S:1:pos:R:3 -1528.8206753272686=T 11.287874=T 11.55669=T -8.4336=T -6.4466=T -8.92=T 0.6197=T -0.3929=T 0.315=T 8.32244=T 0.28405=T 4.6063030748=T 5.2809109008=T 0.25478075=T pbc="F F F"
C        1.08818306      -0.64717139      -1.01986177
C        2.27646104      -0.39175940      -0.13832000
C        2.60843198      -1.19721452       0.89003227
N        3.03166038       0.77990431      -0.36500711
C        3.11326584       1.53608690      -1.53371507
N        3.97550348       2.63147528      -1.39098012
O        2.54877288       1.27498048      -2.59025753
H        1.39011385      -0.81418384      -2.06089760
H        0.41027856       0.21860176      -1.02786487
H        0.54498649      -1.52338602      -0.64701729
H        2.00446922      -2.07250097       1.11747668
H        3.47492559      -1.00190919       1.52422453
H        3.76635617       0.94862898       0.31861239
H        3.97947162       3.10754931      -0.49160321
H        3.90446986       3.26576831      -2.18265129
