16
Properties=species:S:1:pos:R:3 -1680.0651526783217=T 11.679955=T 12.71136=T -9.8303=T -7.7556=T -9.6=T 1.1881=T -0.4421=T 0.803=T 8.958=T -0.26671=T 5.3459291592=T 6.3239307272=T 0.341364414=T pbc="F F F"
C        0.98394858      -0.21434844      -0.17127404
C        2.49135100       0.07030879       0.02486678
C        3.28748435      -0.76704697      -0.88283829
N        3.91166336      -1.43076153      -1.61189154
C        2.85140503       1.54799736      -0.14601999
C        2.69340719       2.14005695      -1.51874286
C        3.27478385       2.25422142       0.91107195
H        0.40437523       0.40174340       0.52823238
H        0.76659187      -1.27248152       0.02259158
H        0.66374123       0.01600399      -1.19524144
H        2.77006762      -0.22821457       1.04925705
H        1.64939572       2.08669112      -1.86542026
H        3.30189358       1.59101684      -2.25450666
H        3.00165001       3.19267403      -1.52973733
H        3.39657619       1.79893389       1.89586143
H        3.51463519       3.31513524       0.82152124
