17
Properties=species:S:1:pos:R:3 -1747.989851221348=T 11.431832=T 12.44456=T -7.9897=T -5.8929=T -8.58=T 0.9027=T -0.0109=T 1.379=T 8.11095=T -0.76023=T 5.6851796524=T 0.250601752=T pbc="F F F"
C        2.61865913      -0.50913785       1.51596001
C        2.62713611       0.00103879       0.06486783
C        3.05116691       1.42989774      -0.07415325
C        4.13427098       1.91022702      -0.70433034
O        4.30490781       3.27542300      -0.66189876
C        3.07868415       3.80614138      -0.06197729
C        2.33419096       2.60943323       0.56242437
H        2.29529420      -1.55911842       1.55975871
H        1.93104893       0.07586402       2.14432943
H        3.62158825      -0.44026456       1.96189032
H        1.61373862      -0.12571388      -0.35892346
H        3.29336244      -0.63170596      -0.54307673
H        4.91848910       1.37667479      -1.23999058
H        2.49542289       4.27126741      -0.87308008
H        3.37347960       4.58008361       0.65814010
H        1.25849733       2.63119596       0.32515908
H        2.42353259       2.58842372       1.66295065
