15
Properties=species:S:1:pos:R:3 -1411.0800295762353=T 8.844139=T 9.81578=T -9.6899=T -7.4048=T -11.617=T 1.0056=T 0.0675=T 3.228=T 10.92579=T -3.0069=T 9.3955598912=T 14.8317136626=T 0.248238239=T pbc="F F F"
C        0.91630172      -0.04694605       0.02310986
C        2.44561723      -0.02373997       0.00759333
C        2.99864195       1.39322076       0.00079220
O        4.42277616       1.34199299      -0.01557475
C        4.99678932       2.63932794      -0.01433624
H        0.53707545      -1.07806960       0.02972692
H        0.49710056       0.45507606      -0.86232476
H        0.51511649       0.45976928       0.91421647
H        2.82719098      -0.55406032      -0.87931793
H        2.84508125      -0.55228623       0.88765122
H        2.65040764       1.94806413       0.89799685
H        2.63005963       1.94784846      -0.88843587
H        6.08686395       2.51309746      -0.03220104
H        4.71410132       3.20899792       0.89219068
H        4.68653635       3.22322718      -0.90257695
