9
Properties=species:S:1:pos:R:3 -1067.547548209732=T 9.703933=T 9.75675=T -9.9722=T -7.9127=T -9.4=T -0.0849=T -1.8414=T -0.613=T 9.0761=T 1.16842=T 4.0911536434=T 4.356434089=T 0.237804216=T pbc="F F F"
C        0.99271342      -0.03490347      -0.00013208
C        2.20511987       0.02063587       0.00028040
C        3.61007465       0.09014862       0.00073457
N        4.37904934       1.15280382       0.00190389
N        5.69255983       0.68396603       0.00185415
C        5.61476160      -0.61380592       0.00066956
O        4.33754335      -1.08704852      -0.00011129
H       -0.07761446      -0.07848313      -0.00047835
H        6.42311238      -1.33773330       0.00024915
