15
Properties=species:S:1:pos:R:3 -1480.6741837694792=T 12.404763=T 11.83159=T -8.4013=T -6.6467=T -9.003=T 0.2269=T -1.4665=T -1.192=T 8.21816=T 1.65566=T 3.2984739496=T 4.0482296902=T 0.487037066=T pbc="F F F"
C        0.89342184      -0.53837493       0.57183511
N        1.62305290      -1.38554637      -0.36107098
C        2.65096822      -2.28613829       0.14262707
N        1.16832897      -1.43677215      -1.59843487
C        1.67977966      -2.26896581      -2.47508256
C        1.12399340      -2.23057846      -3.81882326
O        1.49556839      -2.95465357      -4.74094081
H        0.22312997       0.09916110      -0.01277572
H        1.59084866       0.08973100       1.14564147
H        0.29490540      -1.14031454       1.27677658
H        2.86104765      -2.03420884       1.18749030
H        3.57824957      -2.17972014      -0.44230817
H        2.32185326      -3.33818694       0.08535958
H        2.48500007      -2.98455812      -2.27004552
H        0.31052204      -1.47418394      -3.95272821
