14
Properties=species:S:1:pos:R:3 -1464.5901020624704=T 9.83669=T 10.47456=T -9.9447=T -7.9697=T -11.169=T 0.566=T -1.2576=T -0.808=T 10.4608=T 1.21799=T 4.006917555=T 5.7336457798=T 0.278498453=T pbc="F F F"
C        0.93369226      -0.16008233       0.36396557
N        2.33014501      -0.30417191      -0.06515827
C        2.86501227      -1.58526129      -0.20718070
O        2.24761381      -2.61646281       0.00233559
C        3.05682133       0.88235273      -0.31280883
C        4.50101975       0.76622206      -0.75747206
O        2.50614300       1.96416675      -0.16306834
H        0.88815344       0.41213631       1.29806357
H        0.53162955      -1.16683617       0.50782767
H        0.36277445       0.37916644      -0.40110869
H        3.92226382      -1.57966581      -0.53394876
H        5.11980420       0.25466877      -0.00752408
H        4.87610272       1.78516442      -0.89416794
H        4.59440438       0.22018285      -1.70615474
