11
Properties=species:S:1:pos:R:3 -1242.6414475643307=T 9.650074=T 10.47063=T -9.797=T -7.6479=T -10.037=T 0.4488=T -1.4643=T -0.131=T 9.75931=T 0.89423=T 3.6775115502=T 11.011940576=T 0.431515429=T pbc="F F F"
O        1.06501238       0.04475039       0.50698266
C        2.23450824      -0.01036805       0.24706653
C        3.34214476       0.97140897      -0.11726859
O        4.29677795      -0.12358809      -0.20282644
C        3.30478419      -1.14919426       0.15157675
C        3.09764066      -2.16971258      -0.84900262
C        2.88284506      -3.01569129      -1.69249148
H        3.59233629       1.70288688       0.66914785
H        3.20099619       1.48979036      -1.08028817
H        3.52808529      -1.59327671       1.13897123
H        2.70615900      -3.76451561      -2.43757771
