17
Properties=species:S:1:pos:R:3 -1723.5002583625217=T 10.969871=T 12.42784=T -9.6506=T -7.5641=T -11.121=T 0.9438=T 0.0697=T 2.589=T 10.86023=T -2.21477=T 8.6767014618=T 10.5316560078=T 0.406080859=T pbc="F F F"
C        0.76064432      -0.07417774      -0.52376226
C        2.17714048      -0.12393603       0.00422566
C        3.22803017      -0.74957723      -0.82495438
O        3.12101412       0.68620867      -0.76093956
C        2.40430373      -0.05803384       1.48883571
C        1.50240007       0.72588201       2.41662517
C        1.51309928      -0.78266127       2.47659769
H        0.77122729      -0.12644861      -1.61951818
H        0.26666923       0.86508684      -0.23560343
H        0.15816889      -0.91272166      -0.14444919
H        2.96029000      -1.19719694      -1.78940036
H        4.11520435      -1.17486608      -0.34097335
H        3.46696046      -0.03397903       1.74199838
H        0.61977367       1.20735068       1.99529971
H        1.97598879       1.28285615       3.22507713
H        1.99227832      -1.26958337       3.32618977
H        0.63853683      -1.30876256       2.09231149
