14
Properties=species:S:1:pos:R:3 -1470.3104561451564=T 9.116598=T 9.89843=T -9.13=T -7.0444=T -10.519=T 1.1184=T -0.6667=T 0.341=T 9.59762=T 0.40048=T 3.7454558782=T 12.5064926172=T 0.231385005=T pbc="F F F"
O        1.23658964      -0.04857866       0.75040127
C        2.34302924      -0.01298406       0.24452103
C        3.17940689       1.24793402      -0.00158913
C        4.32348620       0.79382513      -0.91792919
C        4.55327566      -0.68365475      -0.52584822
C        3.14113820      -1.22161566      -0.25818695
H        3.56064652       1.57297475       0.98249599
H        2.55290256       2.06352763      -0.38587289
H        4.00449099       0.85333256      -1.97135939
H        5.23080931       1.40429243      -0.81670832
H        5.09430309      -1.24668983      -1.29814987
H        5.15367343      -0.73379059       0.39714117
H        2.65634191      -1.55649699      -1.19202903
H        3.07391634      -2.05609598       0.45220350
