18
Properties=species:S:1:pos:R:3 -1800.2680124176625=T 13.270705=T 13.43547=T -8.6675=T -6.6483=T -8.542=T 0.6018=T -0.9066=T 0.327=T 7.96452=T 0.19473=T 5.2370074582=T 0.715408587=T pbc="F F F"
C        1.46835310      -0.56849850       0.80520085
C        2.59461392      -0.05865463      -0.12010228
N        3.41459577      -1.14635875      -0.67915667
C        2.02626200       0.83494762      -1.21638109
C        2.01458458       0.45511941      -2.51133945
C        1.48482007       2.15037143      -0.85930182
C        1.55052566       2.77080055       0.33369795
H        0.85797110       0.24779249       1.21511865
H        1.89408507      -1.13829268       1.64450105
H        0.79883750      -1.23577739       0.24049244
H        3.28318984       0.56377553       0.47860649
H        2.79972222      -1.86490129      -1.07561431
H        3.91266656      -1.60686703       0.08609955
H        2.47203193      -0.47614620      -2.84195194
H        1.57939975       1.10086328      -3.27611704
H        1.00657793       2.68320906      -1.68856534
H        2.02215297       2.32218107       1.20946362
H        1.13677001       3.77113603       0.46265933
