17
Properties=species:S:1:pos:R:3 -1741.6075715047825=T 11.769725=T 12.7852=T -9.3399=T -7.1672=T -9.848=T 0.9609=T -0.9051=T -0.011=T 9.92596=T 0.66774=T 3.6578101748=T 6.639698272=T 0.42694519=T pbc="F F F"
C        0.91301579       0.52103064       0.52597762
C        2.33678633       0.59724873      -0.01900422
C        2.48886730      -0.11034521      -1.39426596
C        3.90558376      -0.29343098      -1.85761816
C        4.39582581       0.12091460      -3.03166360
C        2.85143150       2.02243033      -0.10350446
O        2.24064101       3.00803682       0.26989367
H        0.82842286       1.05380282       1.48163797
H        0.61083386      -0.52453620       0.67626831
H        0.20297169       0.98932311      -0.17087352
H        3.03184990       0.08878740       0.68097237
H        1.90618898       0.43387090      -2.15603412
H        2.01862564      -1.10422965      -1.29191741
H        4.56767282      -0.83221206      -1.16832332
H        3.77423270       0.66221062      -3.74963850
H        5.43187727      -0.06768012      -3.31594489
H        3.87399278       2.12058823      -0.54929178
