17
Properties=species:S:1:pos:R:3 -1681.1987010592984=T 11.217988=T 12.34465=T -9.4237=T -7.1777=T -9.47=T 0.8042=T -0.2837=T 1.396=T 8.9368=T -0.84371=T 6.6694177162=T 0.468398544=T pbc="F F F"
O        2.58524259      -0.90919125       0.85213694
C        2.28381955      -0.00629901      -0.22872458
C        2.90632511       1.34315566       0.12350344
O        2.37004617       1.81770241       1.36407755
C        4.44862155       1.28596453       0.15190861
C        5.07393053       2.62549887       0.40331277
C        6.00124005       3.19496965      -0.37548522
H        1.99053773      -1.67314106       0.78851611
H        1.19334137       0.12332520      -0.33438690
H        2.69564788      -0.38170371      -1.18337037
H        2.58947062       2.07374008      -0.63951108
H        2.40718282       1.05174801       1.97017302
H        4.81517679       0.87251422      -0.80257727
H        4.74172529       0.57537916       0.94472307
H        4.71589772       3.15467453       1.29248691
H        6.37943797       2.69640187      -1.27251139
H        6.41885626       4.17557086      -0.14207159
