12
Properties=species:S:1:pos:R:3 -1310.216313581786=T 10.747489=T 11.34625=T -9.8154=T -7.7137=T -9.988=T 0.1079=T -1.7331=T -0.381=T 10.13902=T 1.02151=T 3.6652865306=T 10.6847291234=T 0.396152692=T pbc="F F F"
O        1.27903761       0.38045413      -1.00104617
C        2.05717981       0.27280247      -0.06302900
C        3.26580699       1.12610208       0.08355414
N        3.70350617       1.92031393      -1.06979203
C        3.01455798       2.63171078       0.01742728
C        3.77348520       3.52851222       0.84044442
C        4.38196993       4.29442176       1.55917079
H        1.89580541      -0.48456934       0.74074551
H        4.05407615       0.77943192       0.75544640
H        3.00916226       1.75488816      -1.81470931
H        1.96803536       2.90809323      -0.14900418
H        4.93171712       4.97078865       2.18153213
