17
Properties=species:S:1:pos:R:3 -1690.4393837143857=T 10.721299=T 11.92091=T -9.176=T -7.0813=T -10.692=T 1.1024=T -0.746=T 0.144=T 9.78899=T 0.5575=T 3.7505393042=T 11.9603342872=T 0.121903998=T pbc="F F F"
C        0.90637034       2.12800687       1.08439162
C        2.40419238       2.30201091       1.23864134
O        3.05504457       1.66167215       0.13260457
C        4.46642223       1.79876733       0.18097810
C        5.02805129       3.11414099      -0.38227122
C        4.17783172       3.86018022      -1.38365412
O        6.14836130       3.47897559      -0.05749771
H        0.38454121       2.58940954       1.93415851
H        0.64196954       1.06230953       1.05073525
H        0.54996434       2.60204046       0.15957361
H        2.75974868       1.84693229       2.18358163
H        2.67010331       3.37709884       1.27429254
H        4.88440223       0.99238038      -0.44640046
H        4.86679615       1.66232608       1.20157269
H        3.88772432       3.18829396      -2.20536167
H        4.73287450       4.72159030      -1.76924186
H        3.23754190       4.19322455      -0.92055284
