11
Properties=species:S:1:pos:R:3 -1208.5521866239142=T 8.674485=T 8.51215=T -8.3884=T -6.3247=T -8.281=T 1.0582=T -0.6252=T 0.633=T 7.84098=T -0.12573=T 4.652946608=T 7.2098974874=T 0.605917855=T pbc="F F F"
C        0.00016106       1.25018376       0.00878192
C        1.18086690       0.32181333       0.00412075
C        0.73253402      -0.95862412      -0.00269887
C       -0.73283547      -0.95843564      -0.00293588
C       -1.18081212       0.32214792       0.00372708
H        0.00040012       1.92343197      -0.86793554
H        0.00010692       1.91428508       0.89244398
H        2.21834534       0.65093392       0.00600679
H        1.35125184      -1.85595150      -0.00729365
H       -1.35179774      -1.85559095      -0.00773805
H       -2.21818087       0.65161623       0.00527148
