14
Properties=species:S:1:pos:R:3 -1450.768422900191=T 9.977455=T 10.61861=T -9.324=T -7.3699=T -10.576=T -0.0257=T -1.8113=T -0.745=T 9.42551=T 1.2832=T 3.4231790684=T 5.7774252364=T 0.499022188=T pbc="F F F"
C        1.33432633      -1.29228239      -0.31786850
C        2.33888209      -0.17499057      -0.05821054
C        1.69198648       1.19600438       0.10375832
O        0.47550845       1.34936634       0.01643673
C        2.55457896       2.38028673       0.37345935
C        3.88928596       2.36579058       0.50952273
H        1.85070126      -2.25408871      -0.43791327
H        0.75070540      -1.09432500      -1.22647028
H        0.62067428      -1.38183126       0.51172899
H        3.07417756      -0.10797370      -0.87865212
H        2.93298399      -0.38222937       0.84838857
H        1.99391411       3.31529037       0.46057190
H        4.47331420       1.44711374       0.42887708
H        4.44613093       3.28241887       0.70976105
