16
Properties=species:S:1:pos:R:3 -1640.6484201590765=T 11.871513=T 12.80195=T -9.0828=T -6.9768=T -9.509=T 0.8925=T -0.0423=T 2.376=T 9.14112=T -1.9345=T 4.3453249434=T 10.784054308=T 0.312371365=T pbc="F F F"
N        0.86183876       0.03645305       0.17969531
C        2.31711493      -0.01972228       0.04896493
C        3.10007799       1.06331937       0.86984237
C        4.18812460       0.00759851       1.18943583
C        3.17468374      -1.10397703       0.82143675
C        2.67955167       0.00582197      -1.36631531
C        3.00380607       0.00224884      -2.53656408
H        0.59891779      -0.17323584       1.14601344
H        0.42420147      -0.67121477      -0.41567916
H        2.51336663       1.32916864       1.76183273
H        3.38433645       1.97965705       0.33799441
H        5.01794668       0.05119847       0.47132516
H        4.59775778       0.00001792       2.20741776
H        3.52663138      -1.97121899       0.24757952
H        2.61190171      -1.44992727       1.70186141
H        3.28342235       0.00907234      -3.57015107
