15
Properties=species:S:1:pos:R:3 -1539.8628746480463=T 10.722617=T 11.14897=T -8.0687=T -6.0624=T -8.851=T 1.0183=T -0.129=T 0.8=T 8.3764=T -0.19616=T 4.6772850598=T 11.8632036548=T 0.229504517=T pbc="F F F"
C        0.91537815      -1.20755659       0.88407356
C        1.15154138      -0.41668587      -0.36768556
C        0.91797198       1.07818691      -0.37814111
N       -0.23099274       1.42486324       0.47988581
N       -1.43721222       0.78008592       0.24939302
C       -1.36839577      -0.46802277      -0.08844676
C       -0.11619461      -1.23980925      -0.25086304
H        1.49829901      -2.11520031       1.03938583
H        0.64087132      -0.66385591       1.78812581
H        1.91366592      -0.77183053      -1.06531394
H        1.79070978       1.62908813       0.00691564
H        0.74650341       1.39388311      -1.42792301
H       -0.41032336       2.42771310       0.48631771
H       -2.32929917      -0.97346278      -0.21897207
H       -0.18939309      -2.16993640      -0.81686190
