14
Properties=species:S:1:pos:R:3 -1460.0495519827466=T 9.961767=T 10.80318=T -8.851=T -6.831=T -9.899=T 1.1441=T -0.2179=T 0.612=T 9.36111=T 0.04587=T 5.5138929934=T 11.6290684924=T 0.216347098=T pbc="F F F"
C        1.08734425      -0.03795516      -0.13097667
C        2.57056601       0.12186316      -0.10050891
N        3.14200962       1.13790666      -0.66837444
O        4.54024107       1.08176295      -0.42775010
C        4.83729051      -0.12311813       0.27459447
C        4.54202400      -1.41753859      -0.41775719
C        3.51763773      -0.81775059       0.54685252
H        0.80281385      -0.96760652      -0.64736585
H        0.62238312       0.81295791      -0.64189640
H        0.68648616      -0.10041570       0.89251464
H        5.65640555      -0.00861915       0.98465400
H        5.08793189      -2.29091984      -0.06225032
H        4.31384826      -1.39848668      -1.48412415
H        3.25448799      -1.33331031       1.47150839
