14
Properties=species:S:1:pos:R:3 -1517.231572443714=T 11.208916=T 12.56719=T -10.657=T -8.3641=T -10.266=T 0.8324=T -0.3222=T 1.13=T 9.83491=T -0.80541=T 4.367158878=T 10.942942367=T 0.262035794=T pbc="F F F"
C        1.01874694      -0.15053094      -0.27055421
C        2.52081562      -0.05121462      -0.02302054
C        3.02427561       1.42367333       0.00416665
C        2.42330675       2.20973798       1.08540939
C        1.90594661       2.84103227       1.98098679
C        4.49360878       1.46232114       0.08328569
N        5.65873532       1.45815427       0.12087367
H        0.70392488      -1.20265256      -0.27910602
H        0.74157093       0.28946498      -1.24033756
H        0.44964270       0.36760005       0.51360793
H        3.08071976      -0.57355937      -0.81263374
H        2.79223611      -0.52148748       0.93325716
H        2.75024987       1.89587405      -0.95849063
H        1.45659011       3.40598690       2.77227541
