17
Properties=species:S:1:pos:R:3 -1670.7534329451757=T 11.115782=T 12.04254=T -9.8423=T -7.5927=T -9.807=T 1.3961=T -0.2505=T 1.136=T 9.26577=T -0.57931=T 6.720475151=T 0.428339675=T pbc="F F F"
C        2.87615224      -0.90350791      -0.42691836
O        2.60644426       0.05320422       0.59370568
C        2.94543143       1.40846749       0.22564922
C        2.32172138       2.27370517       1.32781065
O        2.80284795       1.93071035       2.62443464
C        4.43304946       1.59773689       0.10856369
C        5.06115445       1.90408861      -1.03189503
H        2.56743483      -1.87912862      -0.03110296
H        3.94697411      -0.93789000      -0.68917417
H        2.29381155      -0.68407580      -1.34134811
H        2.46005364       1.66063095      -0.73996702
H        1.22207798       2.16737772       1.26952211
H        2.58019645       3.32910276       1.16045797
H        2.65900583       0.96977849       2.71490820
H        4.99653583       1.47202274       1.03827379
H        4.51092720       2.03413780      -1.96821481
H        6.14237140       2.04669913      -1.07092549
