18
Properties=species:S:1:pos:R:3 -1772.9161434033008=T 11.769376=T 12.71792=T -8.7396=T -6.5946=T -8.657=T 0.9205=T 0.0069=T 1.53=T 8.09336=T -0.84947=T 6.0367295568=T 0.385825027=T pbc="F F F"
C        1.95125875      -0.33140013       1.46054884
C        2.53437392       0.08098058       0.09875698
C        3.04213966       1.50702940       0.04457886
C        1.99171260       2.57647546       0.20192396
C        4.35417372       1.75280374      -0.14103127
C        5.05303064       3.07709814      -0.22375944
H        1.61927794      -1.37958634       1.44076781
H        1.08239204       0.28291740       1.73771194
H        2.70445130      -0.22815595       2.25584900
H        1.75461796      -0.05123308      -0.67400023
H        3.35570272      -0.60329792      -0.16603309
H        1.17525313       2.42368687      -0.52363478
H        2.38561546       3.58907698       0.05745166
H        1.53026935       2.53985869       1.20193725
H        5.00963908       0.87977728      -0.24950563
H        4.37545352       3.93241720      -0.10848230
H        5.57173026       3.18767047      -1.19048507
H        5.82979795       3.16047119       0.55418550
