13
Properties=species:S:1:pos:R:3 -1359.6454540723928=T 12.555534=T 12.92351=T -8.0315=T -6.2722=T -9.1=T 0.8493=T -0.6339=T -0.052=T 8.37=T 0.62501=T 4.775754741=T 10.1452040444=T 0.368981694=T pbc="F F F"
C        0.90946596       0.04908161       0.00971486
C        2.40601079       0.02108761       0.00669492
C        3.28907879       1.07296838      -0.05826613
C        4.64821257       0.61659633      -0.04920067
N        5.74570609       1.46530731      -0.17987536
N        4.83831260      -0.69727760       0.02339128
S        3.33134440      -1.44995508       0.06573666
H        0.54756797       1.08472022       0.04286088
H        0.49737665      -0.48298091       0.87912824
H        0.49822236      -0.42503374      -0.89352234
H        2.98867646       2.11842467      -0.12466195
H        5.64013791       2.36944333       0.27356654
H        6.62349745       1.01140787       0.06619307
