15
Properties=species:S:1:pos:R:3 -1540.7470643834793=T 11.493267=T 11.62017=T -8.2731=T -6.3049=T -9.014=T 0.9977=T -0.3181=T 0.744=T 8.48929=T -0.09608=T 4.7118275594=T 6.5069960562=T 0.235839795=T pbc="F F F"
C        0.88391042       0.05194636       0.37976069
C        2.16107526      -0.00715588      -0.01453727
C        2.98884848       1.21309924      -0.31909356
N        4.23067786       1.15177108       0.47027806
N        5.00475305       0.02004799       0.35787692
C        4.41817504      -1.09025268       0.05746389
C        2.94011952      -1.28795268      -0.18791982
H        0.36867006       1.00804350       0.49053024
H        0.31130491      -0.85079112       0.60136234
H        2.45414808       2.13739456      -0.06104591
H        3.22249206       1.23032173      -1.40546943
H        4.82635857       1.96991570       0.35654539
H        5.06926951      -1.96832967       0.02587689
H        2.80108322      -1.68471523      -1.21176901
H        2.55364397      -2.06855291       0.48818059
