12
Properties=species:S:1:pos:R:3 -1271.5325384352172=T 12.379269=T 11.12994=T -9.3667=T -7.5667=T -10.059=T -1.0203=T -2.7283=T -1.948=T 9.50024=T 2.25537=T 3.2449987878=T 4.6511984054=T 0.86265654=T pbc="F F F"
O        0.71485936       0.93301862       0.31481082
N        2.04306897       0.51301290       0.24897328
C        2.84535094       1.52887248       0.16536128
C        4.25877068       1.27832173       0.08844239
C        5.20102950       2.25076706      -0.00250244
C        6.62302868       1.91626445      -0.07682982
O        7.52465587       2.74230940      -0.15967298
H        0.22875903       0.08898530       0.37350422
H        2.45865660       2.55638598       0.15279525
H        4.56476213       0.22691840       0.10650712
H        4.93797067       3.31191397      -0.02350626
H        6.84722758       0.81792970      -0.05227286
