15
Properties=species:S:1:pos:R:3 -1631.2616374445347=T 10.964142=T 11.8182=T -9.3498=T -7.1374=T -9.264=T 1.0818=T -0.7166=T 0.332=T 9.5645=T 0.43563=T 3.7289285444=T 5.9199223462=T 0.297557686=T pbc="F F F"
C        0.97827911       0.01552876       0.06839026
C        2.47022235      -0.01270551      -0.01284783
C        3.25923446      -1.10292163      -0.07113258
C        4.72185339      -0.77028136      -0.14524304
C        4.73953916       0.76604157      -0.12866981
O        5.72929435       1.46989733      -0.17910173
C        3.28747939       1.25561193      -0.03868726
H        0.55390221      -0.99744631       0.06852316
H        0.54586050       0.57083174      -0.77993488
H        0.64106330       0.53087720       0.98264870
H        2.88320340      -2.12782123      -0.06573337
H        5.31634327      -1.15548439       0.70114264
H        5.22365672      -1.13634070      -1.05745016
H        3.05842944       1.91112654      -0.89691444
H        3.15847895       1.88152606       0.86162034
