17
Properties=species:S:1:pos:R:3 -1689.9725829206145=T 12.928544=T 12.97344=T -8.1375=T -6.2838=T -8.716=T 1.1839=T -0.3085=T 0.578=T 8.01403=T -0.07917=T 4.9877460038=T 5.294512165=T 0.438391273=T pbc="F F F"
C        2.88141091       0.01787418      -1.66536533
C        2.41956671       0.40749014      -0.25113529
C        2.32057827       1.89806874      -0.02784412
C        1.13223750       2.53270722       0.04296137
N        3.51931780       2.62698859       0.06188709
C        4.81117031       2.14501621       0.17722756
N        5.90031072       2.81555834       0.31058834
H        2.90921888      -1.07569542      -1.77057860
H        3.88364255       0.40273739      -1.89868617
H        2.18793667       0.41671627      -2.41868161
H        3.08357305      -0.04694354       0.50278149
H        1.42134458      -0.01240133      -0.06542706
H        0.20440365       1.97224616      -0.04487689
H        1.05900608       3.61258950       0.18218959
H        3.41463153       3.63919808       0.12756716
H        4.87966801       1.05222087       0.14546364
H        5.71990276       3.83162858       0.33096883
