18
Properties=species:S:1:pos:R:3 -1737.2560669127417=T 11.821847=T 12.9389=T -9.1702=T -7.1208=T -10.242=T 0.9725=T -0.0244=T 0.697=T 9.61723=T -0.00371999999999=T 5.5852841322=T 11.3432683638=T 0.266843056=T pbc="F F F"
C        1.49945040      -0.43974708      -0.61875110
C        2.83656736      -0.46308454       0.12348676
C        3.74638052       0.71615909      -0.26446180
C        5.04102687       0.74898251       0.50354790
C        5.03773543       1.02165922       1.98155288
N        6.10925914       0.52335669      -0.18287993
O        7.27035752       0.55838594       0.64900833
H        0.87377318      -1.29950505      -0.33983155
H        1.64793504      -0.47335670      -1.70878400
H        0.93191258       0.47545094      -0.38902209
H        3.37043033      -1.40328168      -0.09107979
H        2.65402265      -0.45176274       1.21091666
H        3.20511896       1.66309369      -0.08517956
H        3.97897387       0.66997054      -1.33887967
H        4.03150056       1.27014333       2.33966692
H        5.72145923       1.85040753       2.21624220
H        5.40886942       0.14840051       2.53889452
H        7.97306692       0.39492781      -0.00363668
