11
Properties=species:S:1:pos:R:3 -1204.0955737587944=T 12.303038=T 11.25986=T -9.36=T -7.5498=T -9.749=T -0.9496=T -2.6486=T -1.565=T 9.21896=T 1.9129=T 4.6555007196=T 0.701964181=T pbc="F F F"
O        0.79334437       0.38362705       0.33470114
N        2.16590921       0.13819950       0.37916105
C        2.83599015       1.23036022       0.18195158
C        4.27160883       1.16265928       0.19431513
C        5.05931009       2.25112510      -0.00244733
C        6.47514888       2.19383334       0.00796549
N        7.64652333       2.18466674       0.00969569
H        0.41523263      -0.50161715       0.49435527
H        2.32423243       2.18672356       0.00966656
H        4.71807422       0.18200346       0.37132159
H        4.61928587       3.23602892      -0.18008619
