18
Properties=species:S:1:pos:R:3 -1795.8904287444882=T 12.414464=T 13.40747=T -8.9813=T -6.875=T -9.031=T 1.0327=T -0.111=T 1.423=T 8.39675=T -0.76148=T 6.274745481=T 0.382372847=T pbc="F F F"
N        2.44313544      -0.40181919       1.55909031
C        2.16684697      -0.03626434       0.15665573
C        2.82506117       1.28464297      -0.19109044
C        2.08468548       2.33953365      -0.56842340
C        4.31227211       1.28941306      -0.08872534
C        5.15436069       1.09853440      -1.34572225
C        5.17518102       2.41168637      -0.60202330
H        2.09101242      -1.34255190       1.74877519
H        1.93317634       0.23156187       2.18068556
H        1.09000928       0.02308903      -0.09419587
H        2.60661565      -0.82655204      -0.47633778
H        0.99905651       2.26006520      -0.65413393
H        2.52927371       3.30663803      -0.80777274
H        4.67930661       0.75476621       0.79062103
H        4.62098563       1.07153718      -2.29707179
H        6.02628348       0.44593328      -1.28468618
H        6.06571289       2.66530135      -0.02597752
H        4.69044461       3.26472487      -1.07761729
