15
Properties=species:S:1:pos:R:3 -1447.0517363208148=T 9.430356=T 10.30113=T -9.257=T -7.0228=T -10.402=T 0.8699=T -0.1048=T 2.875=T 9.86676=T -2.60609=T 8.1963796978=T 12.5572276884=T 0.087565961=T pbc="F F F"
C        0.96947557       0.09021443       0.10284445
C        2.47017494      -0.04735893      -0.00342445
O        3.19411820       0.97655287       0.75165113
C        4.13400624      -0.02112438       1.24434874
C        3.21799938      -1.16789998       0.78118103
N        3.85458742      -2.30280113       0.14347003
H        0.47224135      -0.72221698      -0.44914399
H        0.63387864       1.04501481      -0.32697691
H        0.64942036       0.05317240       1.15423522
H        2.79195142      -0.03086888      -1.06603514
H        5.09107782       0.00996799       0.68974288
H        4.33053382       0.08892235       2.32134557
H        2.59281187      -1.53747321       1.60885914
H        4.32509833      -2.01782338      -0.71953321
H        3.17131463      -3.02028798      -0.10593447
