18
Properties=species:S:1:pos:R:3 -1732.6528015117456=T 11.095851=T 12.1149=T -8.5906=T -6.4821=T -10.134=T 0.8634=T -0.0925=T 2.824=T 9.55557=T -2.4926=T 8.0450671834=T 11.4210571802=T 0.11762834=T pbc="F F F"
C        1.59118243      -0.57783469      -0.95579710
O        2.21815515      -0.00661788       0.18748564
C        3.01933299       1.14347802      -0.08804865
C        4.22156972       0.82978554      -0.97461105
C        2.26098107       2.44757006      -0.48861717
N        2.86956085       3.18332364       0.66966931
C        3.38725288       1.88487794       1.21818923
H        0.89789762      -1.34205443      -0.58192682
H        2.31359927      -1.06103895      -1.63706621
H        1.01417030       0.17350151      -1.52599674
H        4.86341995       1.71816357      -1.06814343
H        3.91905961       0.53491514      -1.98984690
H        4.81775093       0.01758430      -0.53337880
H        1.17006505       2.35843994      -0.36226818
H        2.47817088       2.86648840      -1.48301377
H        3.65020544       3.75661559       0.34143001
H        4.44920283       1.87570551       1.50608430
H        2.77544303       1.54290677       2.06669633
