14
Properties=species:S:1:pos:R:3 -1382.7504097991555=T 9.663167=T 10.47648=T -9.1539=T -7.0588=T -10.284=T 0.7707=T -0.3086=T 1.463=T 9.50177=T -1.08742=T 5.4038802156=T 12.039226579=T 0.261327604=T pbc="F F F"
C        0.91065323       0.08786256       0.07025408
N        2.36468986       0.02969220      -0.05401479
C        2.76969599      -0.72839422      -1.23732624
C        2.91946782       1.38242611      -0.06421095
C        4.38425487       1.38553661       0.00635235
N        5.54897956       1.40672598       0.04851654
H        0.63419733       0.61224409       0.99618901
H        0.51418822      -0.93485606       0.12725793
H        0.41903251       0.60179020      -0.78547069
H        2.37512006      -1.75041302      -1.16095033
H        3.86529508      -0.78772913      -1.28543522
H        2.39764664      -0.27889241      -2.18433465
H        2.54051861       1.92889152       0.81408378
H        2.62429021       1.97040558      -0.96527080
