19
Properties=species:S:1:pos:R:3 -1890.785053776219=T 11.521769=T 12.87412=T -10.2432=T -7.8218=T -11.995=T 0.9471=T -0.0185=T 3.01=T 11.58152=T -2.72157=T 9.8391446034=T 10.4474447166=T 0.11470346=T pbc="F F F"
O        2.06737380      -0.21775717      -1.47323062
C        2.33889178       0.05511859      -0.08883894
C        3.02157314       1.40775415       0.01860514
C        2.16638490       2.60241612      -0.43448151
C        2.91077947       3.82030053       0.13941429
C        3.53361626       3.32825805       1.47664899
C        3.40043549       1.78084915       1.46653347
H        1.62810956      -1.08262777      -1.52669464
H        2.98995082      -0.72986453       0.34217514
H        1.39903016       0.07534126       0.49925989
H        3.93680380       1.37588533      -0.60095206
H        1.16124466       2.51651959       0.01675711
H        2.03419066       2.64368031      -1.52391928
H        3.70667353       4.12853203      -0.55681940
H        2.25332806       4.69105327       0.27533842
H        4.58609384       3.63698511       1.55629353
H        3.01480264       3.75911299       2.34523120
H        4.31502730       1.27325971       1.80622718
H        2.58837012       1.46662326       2.14476210
