14
Properties=species:S:1:pos:R:3 -1520.7663164194532=T 11.240812=T 12.50925=T -10.4124=T -8.0924=T -10.064=T 0.698=T -0.3475=T 1.367=T 9.62057=T -1.0111=T 4.362013459=T 10.83141696=T 0.412526292=T pbc="F F F"
C        0.95197165      -0.00549719       0.07163994
C        2.49060958      -0.00660911       0.01881601
C        2.98113104      -0.79422639      -1.23045432
C        4.42585536      -0.99230468      -1.26643972
N        5.57875443      -1.16614201      -1.28643580
C        3.02653850       1.35275219       0.02810330
C        3.45241451       2.48861083       0.01664614
H        0.60211434       0.53412473       0.96028647
H        0.56697704      -1.03407800       0.11480962
H        0.53238269       0.49115821      -0.81438082
H        2.87369295      -0.53154980       0.91104225
H        2.67322512      -0.26347325      -2.14467802
H        2.49757904      -1.78351520      -1.24469033
H        3.84276376       3.48591967       0.01215528
