16
Properties=species:S:1:pos:R:3 -1679.7987639325404=T 12.793224=T 12.6761=T -8.3833=T -6.3371=T -8.24=T 0.713=T -0.7614=T 0.44=T 7.7098=T 0.10951=T 4.9913911922=T 0.625367302=T pbc="F F F"
N        1.06853340       0.11601461      -0.52373540
C        2.43636130      -0.00295893       0.02162193
C        2.61310968      -1.30348827       0.84819168
C        3.29911652      -0.87679651       2.13837971
C        3.85823661      -1.67944547       3.06349574
C        3.24143934       0.58258821       2.17587865
C        2.74507069       1.08272114       1.02694126
H        0.92504547      -0.60849341      -1.23356969
H        0.97467215       1.00764091      -1.01921598
H        3.21077582       0.03471596      -0.77618386
H        3.17137079      -2.08486160       0.31428170
H        1.60892159      -1.69559138       1.07759501
H        3.86698455      -2.76447969       2.95071167
H        4.32393279      -1.26674095       3.95988529
H        3.58112859       1.17006752       3.03031309
H        2.61221070       2.14264786       0.80249920
