20
Properties=species:S:1:pos:R:3 -1882.2416960976173=T 11.808919=T 13.11902=T -9.1324=T -6.8295=T -10.506=T 0.9505=T 0.0317=T 3.013=T 9.86607=T -2.69807=T 8.6429276754=T 10.6235916268=T 0.073659768=T pbc="F F F"
C       -0.95371594       0.05287226       0.32229882
C        0.53070017       0.03330822      -0.05317430
C        1.45468959       0.81671245       0.89405403
C        1.14978232       2.31032071       0.96210947
N        2.21551974       3.00296381       1.70025213
O        1.38620136       0.33752705       2.25347694
C        2.07005655      -0.89013337       2.46286107
H       -1.53022803      -0.61332313      -0.33512047
H       -1.38772058       1.05910599       0.23392839
H       -1.09875912      -0.28317682       1.35886988
H        0.67567579       0.43684251      -1.06935031
H        0.88305867      -1.00996441      -0.09874879
H        2.50084886       0.70820658       0.54193153
H        0.13986441       2.44441843       1.39707746
H        1.12195179       2.70378954      -0.06687992
H        2.24444748       2.61656164       2.64828322
H        1.98102130       3.99301909       1.79990713
H        2.04752019      -1.08686549       3.54277820
H        3.12310099      -0.82574636       2.13048199
H        1.58836446      -1.73789869       1.94268352
