20
Properties=species:S:1:pos:R:3 -1889.4997104686784=T 11.918971=T 13.18552=T -8.8435=T -6.6851=T -10.156=T 0.8893=T -0.0648=T 2.825=T 9.44536=T -2.50011=T 8.1012824358=T 12.545337431=T 0.074730125=T pbc="F F F"
C        1.28418453       1.12272443      -1.38381739
N        2.59006553       1.69642286      -1.05774569
C        3.30063741       0.95206874      -0.01543125
C        4.79305451       1.35942625       0.04699465
C        5.41337698       0.88968283       1.35977669
C        5.55752382       0.80757909      -1.16134194
O        4.88833005       2.80595451       0.06307647
H        0.77095553       1.76829429      -2.11032811
H        0.61542370       0.98718815      -0.50788101
H        1.42294923       0.13693363      -1.85378753
H        2.44717169       2.64891577      -0.71222327
H        3.23526251      -0.12196619      -0.25668299
H        2.84476741       1.08640197       0.98821279
H        4.91317590       1.37191208       2.21125641
H        6.48020364       1.15079714       1.39214345
H        5.31662312      -0.20004378       1.46835547
H        5.06031903       1.10847511      -2.09580401
H        5.59547800      -0.29166274      -1.13650088
H        6.58754499       1.19074958      -1.16224943
H        4.65559243       3.09853628      -0.83722242
