17
Properties=species:S:1:pos:R:3 -1811.2088428307359=T 13.087272=T 13.26684=T -8.0957=T -6.1269=T -8.07=T 0.8713=T -0.5975=T 0.507=T 7.50802=T 0.04926=T 4.901538538=T 0.590197763=T pbc="F F F"
C        0.99977149       0.03028774       0.14860387
C        2.49085076      -0.00285980       0.02526233
C        3.26701407      -1.10201025      -0.11880969
C        4.73291706      -0.77991675      -0.20487089
C        4.77662262       0.76827800      -0.11705641
C        3.32668330       1.20579716       0.05200353
C        2.88719561       2.47093315       0.19884184
H        0.57092385      -0.97882809       0.09692805
H        0.55109742       0.63755899      -0.65323176
H        0.69357029       0.48645595       1.10326610
H        2.88379582      -2.12372177      -0.16415953
H        5.29761480      -1.25952659       0.61297312
H        5.17707893      -1.15848957      -1.14097960
H        5.20898736       1.20983120      -1.02727053
H        5.39263673       1.11315984       0.72619214
H        3.57540311       3.31751160       0.21102839
H        1.82551679       2.69515921       0.31111904
