16
Properties=species:S:1:pos:R:3 -1475.85905607991=T 9.602306=T 10.16679=T -8.2803=T -6.2271=T -9.691=T 1.0039=T 0.0571=T 3.501=T 8.93088=T -3.26214=T 7.7433844482=T 12.3326518466=T 0.253349408=T pbc="F F F"
C        0.96865824      -0.07799486       0.09907522
C        2.48850990       0.02636756       0.19484310
N        2.99348679       1.39976954       0.09298747
C        2.59347093       2.22265800       1.22993137
C        4.44546007       1.40198263      -0.04711277
H        0.66863516      -1.13470206       0.05926735
H        0.60446598       0.42068352      -0.81057644
H        0.46286089       0.37139522       0.96494878
H        2.93752111      -0.54187605      -0.63578196
H        2.83953731      -0.46012894       1.13664788
H        1.49970756       2.29992909       1.28554318
H        2.99295972       3.23901351       1.10305198
H        2.96515518       1.82521822       2.20292579
H        4.73464864       0.82260863      -0.93600936
H        4.97011970       0.96706091       0.83460661
H        4.80398282       2.43313507      -0.17975820
