16
Properties=species:S:1:pos:R:3 -1666.836857396699=T 11.359949=T 12.21694=T -8.3712=T -6.3161=T -8.503=T 0.9611=T 0.0406=T 1.408=T 8.0056=T -0.73737=T 5.6679331998=T 0.260004579=T pbc="F F F"
C        0.97989983      -0.09749762      -0.13562111
C        2.44118495       0.14929083       0.05951813
C        3.15655905       1.24859009      -0.23883012
C        4.60021361       1.08385315       0.16731870
N        4.72801008      -0.29939809       0.70432585
C        4.43939040      -1.35011546      -0.28675330
C        3.35735990      -0.88477135       0.63437697
H        0.80731862      -0.95431708      -0.80678522
H        0.47409881       0.78019220      -0.55810922
H        0.49274747      -0.34538730       0.82137723
H        2.76465424       2.14435175      -0.72385363
H        5.30855137       1.22909123      -0.66625791
H        4.88989681       1.79745482       0.95909679
H        4.95755596      -2.29365673      -0.09702186
H        4.33636557      -1.06652168      -1.33965203
H        3.02896332      -1.50872875       1.47174070
