13
Properties=species:S:1:pos:R:3 -1312.8390855633463=T 11.705229=T 11.37214=T -7.9212=T -6.0957=T -8.7=T 0.9303=T -0.7726=T -0.01=T 8.26298=T 0.48617=T 4.0790402112=T 11.2561434016=T 0.564274846=T pbc="F F F"
C        1.59943908      -0.50992536      -0.40778720
O        1.41119210       0.90204458      -0.21786971
C        2.53854446       1.70122126      -0.13819163
N        2.40871643       2.97086678       0.08333316
N        1.13128156       3.45607095       0.15312868
C        3.82961045       1.13361285      -0.29198679
C        4.91623501       0.60020378      -0.42074133
H        2.15954647      -0.95278243       0.42844209
H        2.12563108      -0.71498375      -1.35107225
H        0.59063138      -0.93591274      -0.44572096
H        1.11224293       4.32101891       0.68729080
H        0.41195531       2.78169094       0.43111185
H        5.88247376       0.15510423      -0.54109672
