13
Properties=species:S:1:pos:R:3 -1446.4420305576668=T 12.07934=T 12.34791=T -9.3222=T -7.2459=T -9.013=T -0.491=T -2.1165=T -0.974=T 8.62852=T 1.6527=T 3.3910171=T 4.274479343=T 0.293864971=T pbc="F F F"
C        0.98551835      -0.28843693       0.16334051
C        2.45851877      -0.05506711       0.14873492
C        3.14064582       1.11716902      -0.00516954
C        2.44457981       2.42219517      -0.19235881
O        3.01134553       3.49321452      -0.33276901
C        4.56537788       1.13688977       0.00829797
C        5.77978193       1.18240977       0.01363541
H        0.71701210      -1.01027122      -0.62510895
H        0.37720453       0.61088360       0.02685057
H        0.69466575      -0.76162775       1.11545378
H        3.06870482      -0.95447852       0.28049070
H        1.33105880       2.36526197      -0.19733798
H        6.84984593       1.21879771       0.01870043
