13
Properties=species:S:1:pos:R:3 -1425.0739489851928=T 12.688402=T 11.95851=T -8.477=T -6.6833=T -8.583=T -0.338=T -1.9338=T -0.652=T 7.96759=T 1.14854=T 4.3028225426=T 0.54968749=T pbc="F F F"
N        0.88677074       0.15310935      -0.15545934
C        2.26267976       0.04361362      -0.13075802
C        2.84789702      -1.27629274      -0.37611005
C        2.17100615      -2.36407983      -0.78127530
C        3.06180642       1.14631396       0.06095552
C        4.46954049       1.10832786      -0.00840643
N        5.64252002       1.10887651      -0.05068074
H        0.49331376       1.02857929       0.17681135
H        0.36452390      -0.66522858       0.14360286
H        3.92570634      -1.33796321      -0.21316896
H        1.10291193      -2.34844259      -1.00666105
H        2.68501497      -3.31286910      -0.93221539
H        2.61270849       2.12189547       0.25922555
