19
Properties=species:S:1:pos:R:3 -1887.3813336704636=T 11.959818=T 13.74097=T -9.6403=T -7.424=T -10.967=T 1.312=T -0.754=T -0.009=T 10.08712=T 0.62957=T 3.6771271936=T 11.3171569122=T 0.235379082=T pbc="F F F"
C        0.52812987      -0.21383895      -1.00973602
C        1.94930492      -0.52041127      -0.53478647
C        2.69935791       0.71534106      -0.02762013
C        4.11596894       0.40182437       0.46064571
C        4.86834389       1.63338711       0.95418398
C        6.26480905       1.37627917       1.46090898
O        6.80992020       0.28810388       1.49949222
H        0.02136553      -1.12004956      -1.37121503
H        0.53150073       0.51696673      -1.83306095
H       -0.08209413       0.20699607      -0.19581348
H        2.52386952      -0.97797643      -1.35837956
H        1.91530833      -1.27667891       0.26814483
H        2.12043077       1.18059162       0.79087123
H        2.74341163       1.46898522      -0.83484462
H        4.69572021      -0.07217455      -0.34795149
H        4.07680088      -0.34305765       1.27191872
H        4.32460052       2.14552917       1.77131151
H        4.95542353       2.40395521       0.16402346
H        6.80291771       2.29353771       1.82038711
