19
Properties=species:S:1:pos:R:3 -1911.9381330215522=T 12.863263=T 14.26892=T -10.0111=T -7.6057=T -9.806=T 0.8917=T -0.0243=T 2.376=T 9.38615=T -1.95287=T 4.353830383=T 10.6467770088=T 0.571418053=T pbc="F F F"
C        0.77723432      -0.30143028       0.70964354
C        2.15530056      -0.47800908       0.06074966
C        2.37633164      -1.93739905      -0.35643894
C        2.31193203       0.50036460      -1.11526278
C        3.70685198       0.52388719      -1.77732947
C        4.78463135       0.89700273      -0.86768962
C        5.67272374       1.20838687      -0.09989136
H        0.62031283       0.73529990       1.04333277
H        0.66236825      -0.95840281       1.58448165
H       -0.02800158      -0.55032057      -0.00124249
H        2.92392909      -0.21663544       0.81008618
H        1.65571461      -2.23816937      -1.13516493
H        2.23871343      -2.61277962       0.50094605
H        3.38979451      -2.10965733      -0.74641041
H        2.07748331       1.51910278      -0.76547683
H        1.56952791       0.25415632      -1.89518855
H        3.69189758       1.23474358      -2.62017225
H        3.93555592      -0.46084397      -2.21799178
H        6.46143853       1.48352357       0.56998956
