12
Properties=species:S:1:pos:R:3 -1357.7076979496962=T 10.311351=T 10.90741=T -10.0907=T -8.1248=T -10.572=T -1.0469=T -2.7816=T -1.402=T 10.12193=T 1.94358=T 3.398022309=T 5.2533364144=T 0.345327553=T pbc="F F F"
C        0.98600198      -0.09087332      -0.28459030
C        2.49863826      -0.07047163      -0.23725982
O        3.17046126      -1.08028002      -0.37859789
C        3.18651632       1.25967609      -0.00556010
C        2.52981804       2.42648275       0.16467283
C        4.62035495       1.22984030       0.02752645
N        5.78785187       1.22966078       0.05724701
H        0.60773127       0.55108153      -1.09314937
H        0.55633238       0.27265154       0.65992119
H        0.66005069      -1.12133990      -0.45780234
H        1.44179485       2.46753741       0.14244184
H        3.06741813       3.35972448       0.32923050
