15
Properties=species:S:1:pos:R:3 -1463.020235766651=T 11.621847=T 12.10318=T -8.2076=T -6.2287=T -9.672=T 1.4403=T -0.2454=T 0.627=T 9.00355=T -0.03504=T 5.6821171982=T 6.726798437=T 0.403296981=T pbc="F F F"
O        1.42497602       1.09794479       1.74864860
N        2.60940490       1.58512310       1.10043405
C        3.48565147       0.63944966       1.05062755
N        4.76420092       0.85981900       0.58107842
C        5.08381931       2.12828950      -0.07602877
C        6.55801007       2.23633255      -0.32744875
C        7.10192628       2.44697908      -1.53087658
H        0.84542526       1.87681121       1.69019103
H        3.27878734      -0.37278417       1.41938471
H        5.20922612       0.04224293       0.16969358
H        4.75059296       2.92804534       0.60622935
H        4.51416724       2.26046488      -1.01489413
H        7.20093439       2.13827696       0.55399586
H        6.48132846       2.54548394      -2.42537647
H        8.18092927       2.54033124      -1.66201846
