20
Properties=species:S:1:pos:R:3 -1936.9865376024416=T 13.469539=T 15.03674=T -8.6701=T -6.5037=T -9.025=T 0.9823=T 0.0876=T 1.45=T 8.5081=T -0.81916=T 6.3041177644=T 0.414342239=T pbc="F F F"
C        0.86414623       0.70320419       0.07864676
N        2.31441711       0.53754248       0.13271190
C        3.03447881       1.77124065      -0.18165439
C        4.55245271       1.54833447      -0.17146319
C        5.32674360       2.81535370      -0.38686293
C        6.16459517       3.04783391      -1.40653718
C        6.93356318       4.31538106      -1.62386875
H        0.37533294      -0.26778689       0.23947211
H        0.48801555       1.13001566      -0.87583354
H        0.54309230       1.37447395       0.89045524
H        2.59338343      -0.18546991      -0.53597018
H        2.76984461       2.51873395       0.58739465
H        2.73569906       2.21075263      -1.15976850
H        4.82309540       0.81348517      -0.94936492
H        4.81788530       1.09814150       0.80096419
H        5.17497693       3.60712314       0.35899023
H        6.31409774       2.25465830      -2.15036556
H        6.71895872       5.05675589      -0.84136953
H        6.68930536       4.76642320      -2.59929369
H        8.01959586       4.12855296      -1.63004274
