12
Properties=species:S:1:pos:R:3 -1421.5095053455666=T 11.483302=T 11.42245=T -8.9321=T -7.0333=T -8.687=T -0.4054=T -2.0044=T -0.561=T 8.19052=T 1.07905=T 4.1339536106=T 6.8886373628=T 0.555443596=T pbc="F F F"
N        0.96563140      -0.04521094      -0.00057962
C        2.13706936      -0.00104083      -0.00019118
C        3.54887653       0.01322632       0.00048973
C        4.36605418       1.11076312      -0.00468772
C        5.75306438       0.67593567      -0.00173656
C        5.79932739      -0.68211024       0.00519146
C        4.40626246      -1.22928058       0.00723271
H        4.02869659       2.14583384      -0.01011366
H        6.60838135       1.34968544      -0.00472289
H        6.69241665      -1.30372747       0.00880604
H        4.20484864      -1.86674119      -0.87100559
H        4.20391109      -1.85789314       0.89160728
