14
Properties=species:S:1:pos:R:3 -1368.0971425296234=T 11.092796=T 11.18369=T -9.0074=T -6.9922=T -9.644=T 0.5278=T -1.191=T 0.229=T 9.25637=T 0.4364=T 4.4741092016=T 5.7573890988=T 0.733522996=T pbc="F F F"
C        0.82018025      -0.41081941       0.11700190
C        2.34192707      -0.19803976       0.05385325
C        2.70066881       1.22885025      -0.19569524
N        3.37597403       1.57895084      -1.23358664
N        3.58512998       2.98278780      -1.26222427
C        4.23075621       3.33998181      -2.31176117
H        0.58683155      -1.45742276       0.35488132
H        0.35037847      -0.16578332      -0.84565792
H        0.35819055       0.22142367       0.88932002
H        2.79560337      -0.82132707      -0.72953976
H        2.78627619      -0.50003572       1.01885710
H        2.36186130       1.99415097       0.52371333
H        4.44589699       4.40447253      -2.43419110
H        4.56360524       2.61915017      -3.07216082
