16
Properties=species:S:1:pos:R:3 -1666.2588489518032=T 11.68669=T 12.28444=T -8.2691=T -6.2602=T -8.86=T 1.0892=T -0.0318=T 1.4=T 8.28762=T -0.75579=T 6.1458992298=T 0.424244737=T pbc="F F F"
C        1.25561741       0.08074341       0.58345134
C        2.42191510      -0.06321761      -0.06229851
C        3.00183862      -1.37755985      -0.58109971
N        4.47803898      -1.21811752      -0.63374256
C        4.71266932       0.22244278      -0.69065363
C        4.01302101       0.98686584      -1.76622529
C        3.42477032       0.98759825      -0.34962224
H        0.89314277       1.06034705       0.89912865
H        0.62280255      -0.77913070       0.81110003
H        2.62186319      -1.57455833      -1.59797781
H        2.72566858      -2.24267666       0.03560273
H        4.85882475      -1.54602523       0.25818635
H        5.69256108       0.55286412      -0.34570032
H        4.47409463       1.92018758      -2.08909340
H        3.48514586       0.44527574      -2.55256152
H        3.41411584       1.91828114       0.21790587
