12
Properties=species:S:1:pos:R:3 -1281.5637248256799=T 11.569337=T 12.00611=T -8.7074=T -6.8384=T -8.929=T 0.5813=T -0.853=T -0.432=T 8.29078=T 1.03905=T 4.3088606608=T 9.8776050606=T 0.609466792=T pbc="F F F"
C        0.95195478      -0.00536566       0.00531067
C        2.45268088       0.02559436       0.00238332
C        3.21983695       1.17811359       0.00293076
O        2.70291008       2.43745104       0.00597876
S        4.91263161       0.75875372      -0.00077249
N        4.63723855      -0.90607531      -0.00307478
C        3.32130217      -1.09878612      -0.00114306
H        0.58736786      -1.04052915      -0.00654192
H        0.53651093       0.51093529      -0.87268299
H        0.54017421       0.48913985       0.89756039
H        3.42035949       3.09514130       0.00434702
H        2.96628250      -2.13311290      -0.00236568
