17
Properties=species:S:1:pos:R:3 -1658.514351631018=T 10.882948=T 11.85151=T -9.3741=T -7.1093=T -10.69=T 0.678=T -0.3101=T 0.571=T 9.6308=T 0.08416=T 4.3518218098=T 12.2302394106=T 0.133748851=T pbc="F F F"
C        0.78065583      -0.01641729      -0.26840575
C        2.30378861       0.05987137      -0.08456950
C        3.05369354      -0.76636981      -1.14973156
N        2.70116592      -2.18982263      -1.05423231
C        2.76486806       1.51748701      -0.17904286
N        3.21673503       2.07530386       0.99235638
O        2.74642787       2.14805694      -1.23494193
H        0.24924782       0.47751979       0.55763695
H        0.47056599      -1.06821181      -0.31493940
H        0.49299752       0.47796952      -1.20743058
H        2.56771744      -0.34371858       0.91061929
H        4.13901719      -0.56572126      -1.05557692
H        2.74945180      -0.39415968      -2.13917091
H        3.19724553      -2.62498555      -0.27253173
H        3.00788870      -2.68124050      -1.89537518
H        3.11256849       1.59886272       1.88047194
H        3.42907465       3.06873588       0.99260406
