13
Properties=species:S:1:pos:R:3 -1338.377525669046=T 10.508314=T 11.15815=T -9.1637=T -7.2071=T -9.944=T 0.8587=T -0.3723=T 0.831=T 9.31228=T -0.19231=T 4.378131639=T 10.6159168934=T 0.190485602=T pbc="F F F"
N        1.48849225      -0.55232942       0.76902257
C        2.57003154      -0.31671112      -0.05371020
N        3.01578606      -1.01181432      -1.03635288
C        3.20916207       1.06768460       0.21557809
O        3.00157019       1.50050027       1.58056869
C        4.61889851       1.11751463      -0.14846162
C        5.81104146       1.21672681      -0.34781425
H        1.47890626      -0.02676986       1.64186907
H        1.12032685      -1.49730565       0.80626015
H        2.46503031      -1.87125557      -1.17025507
H        2.64721821       1.78957045      -0.40334610
H        3.80738755       1.26012621       2.07387647
H        6.85949873       1.28257296      -0.55609492
