16
Properties=species:S:1:pos:R:3 -1540.5503181464796=T 10.845996=T 11.75047=T -9.4588=T -7.3565=T -10.606=T 1.2698=T -0.2613=T 0.48=T 10.12192=T 0.12263=T 5.5200674962=T 6.6035811502=T 0.182459332=T pbc="F F F"
C        0.88808717      -0.39507980       0.05327375
C        2.38880680      -0.12977763      -0.01505943
O        3.04259358      -1.02183192      -0.93509274
C        2.69513172       1.34398384      -0.35174076
C        4.15599940       1.66045572      -0.31470943
N        4.57089888       2.61296264       0.43710083
O        5.98133681       2.75548602       0.34526373
H        0.41224692       0.21317481       0.83601192
H        0.70028506      -1.45441555       0.27331350
H        0.40180966      -0.14713242      -0.90465379
H        2.84645958      -0.36849144       0.95873953
H        2.57528490      -0.95612380      -1.78826020
H        2.16914203       2.01031838       0.34843050
H        2.29776800       1.55220454      -1.36345382
H        4.85322854       1.06408397      -0.91818022
H        6.14485095       3.49592264       0.95658665
