10
Properties=species:S:1:pos:R:3 -1060.7515250988831=T 9.669279=T 10.32257=T -10.6346=T -8.6885=T -10.47=T -1.3728=T -3.1858=T -2.043=T 9.80397=T 2.55155=T 4.0253542732=T 7.8266906416=T 0.333024125=T pbc="F F F"
O        0.89283220      -0.10704258       0.08550469
S        2.34279163      -0.06090004       0.27010071
O        2.94737148      -0.10748753       1.60083702
C        3.04741548       1.29470460      -0.68480362
C        3.77568079       0.76406136      -1.67256077
C        3.74257968      -0.72113632      -1.62827201
N        3.06203146      -1.30962403      -0.70560599
H        2.84961146       2.32830162      -0.41676118
H        4.33187044       1.31853477      -2.42700355
H        4.28214539      -1.33035185      -2.36031531
