16
Properties=species:S:1:pos:R:3 -1525.8142174504965=T 9.319428=T 10.20042=T -9.5739=T -7.265=T -11.787=T 0.8129=T -0.2467=T 2.92=T 11.18091=T -2.68339=T 9.7592604236=T 10.5887515608=T 0.118514168=T pbc="F F F"
O        2.24966019      -0.97276632       0.99425415
C        2.11177346      -0.03994328      -0.10487871
C        2.93776331       1.20999841       0.17278400
C        4.46516308       1.09217286       0.02551616
C        5.20437808       0.30029753       1.11025304
O        5.02030638      -1.11072961       1.04349702
H        1.72931441      -1.76711141       0.78513516
H        1.04874095       0.23878267      -0.20705854
H        2.44051510      -0.51224217      -1.04866147
H        2.68045094       1.57940168       1.18088141
H        2.58048795       1.97677222      -0.53447405
H        4.87980919       2.11515879       0.02748132
H        4.71333474       0.65611895      -0.95784562
H        4.91896337       0.69331952       2.10835132
H        6.28692682       0.46690991       0.99576669
H        4.05465204      -1.26526975       1.14963810
