13
Properties=species:S:1:pos:R:3 -1346.3767108390916=T 8.810603=T 9.08273=T -9.1331=T -6.8118=T -8.947=T 1.0051=T 0.091=T 1.457=T 8.4878=T -0.84934=T 6.1287271688=T 0.311457756=T pbc="F F F"
C       -1.29171313      -0.00025868      -0.13100242
C       -0.38305305      -1.23631901       0.09642507
C        1.00881049      -0.67101303      -0.05873791
C        1.00882299       0.66967839      -0.05175383
C       -0.38306485       1.23331839       0.10933303
H       -1.63850321       0.00519049      -1.17537014
H       -2.18382246      -0.00362062       0.50996677
H       -0.59731722      -2.05252948      -0.61147119
H       -0.51224670      -1.66346695       1.10810997
H        1.90121002      -1.29624628      -0.12134452
H        1.90117597       1.29559122      -0.10786684
H       -0.51219599       1.64980919       1.12545955
H       -0.59733286       2.05693637      -0.58992754
