19
Properties=species:S:1:pos:R:3 -1801.573995259363=T 13.10849=T 14.13874=T -8.3373=T -6.3294=T -9.096=T 1.5085=T -0.1714=T 0.684=T 8.52708=T -0.16946=T 4.8000311998=T 5.374235163=T 0.413465672=T pbc="F F F"
C        0.72540096      -0.33149249      -0.13375149
C        2.23711531      -0.20523519       0.06166205
C        2.77829189       1.17155634      -0.33352780
C        4.28452945       1.29813492      -0.11864547
N        4.75364999       2.63052100      -0.49348653
N        6.10069910       2.77326085      -0.57979159
C        6.61360508       3.94437212      -0.42351634
H        0.36519731      -1.32893459       0.15563871
H        0.44455991      -0.16681703      -1.18521382
H        0.18230894       0.40867299       0.47396412
H        2.75188290      -0.98094115      -0.53063031
H        2.49085970      -0.40812893       1.11622009
H        2.25518823       1.94585800       0.25739681
H        2.54740148       1.37909311      -1.39172371
H        4.82942893       0.58205630      -0.75157641
H        4.53690325       1.05754037       0.93394591
H        4.26194596       3.39745797      -0.01308415
H        7.68959062       4.04719162      -0.56222634
H        6.01771102       4.83780378      -0.17156374
