14
Properties=species:S:1:pos:R:3 -1481.0175364160737=T 10.796123=T 11.87829=T -10.1357=T -7.9069=T -9.858=T 0.9458=T -0.6657=T 0.991=T 9.31598=T -0.45=T 5.3925726924=T 6.6809112184=T 0.490264062=T pbc="F F F"
O        0.98186777       0.34260921      -0.18899537
C        2.32626723       0.01872763       0.17534716
C        2.93206789      -0.82906389      -0.95996071
C        2.22871297      -2.14520551      -1.12299285
C        2.83073094      -3.33518543      -1.02252665
C        3.12582588       1.23809745       0.40553960
N        3.74337932       2.20676231       0.60924228
H        0.57994927       0.85347020       0.53545394
H        2.35105612      -0.56944165       1.11249711
H        4.00048483      -0.98405594      -0.75016730
H        2.85441925      -0.23146548      -1.88326532
H        1.15786914      -2.09380777      -1.34031161
H        3.89960345      -3.42180309      -0.80976951
H        2.27696595      -4.26507804      -1.15866076
