12
Properties=species:S:1:pos:R:3 -1282.7705527843784=T 9.345208=T 9.83697=T -8.8125=T -6.8267=T -9.224=T 1.5373=T -0.1872=T -0.241=T 8.60396=T 0.78967=T 4.5935325168=T 12.4499550012=T 0.419846912=T pbc="F F F"
C        3.27110539      -1.04995762       0.52959125
O        2.42079916       0.08620478       0.24682247
C        3.02006260       1.27763242       0.16964925
C        2.47850139       2.51568206      -0.08188257
C        3.61036653       3.36424418      -0.03337993
N        4.74381687       2.73375116       0.22069789
O        4.35457044       1.35876099       0.35454675
H        2.59689690      -1.91141571       0.54988375
H        3.76700700      -0.92941211       1.50206637
H        4.02614528      -1.17365117      -0.25829285
H        1.44039881       2.75945323      -0.26844298
H        3.64955963       4.44245780      -0.17745938
