17
Properties=species:S:1:pos:R:3 -1613.8991822110488=T 11.859601=T 12.37166=T -8.1842=T -6.2589=T -8.822=T 0.9556=T -0.2235=T 0.748=T 8.2714=T -0.09348=T 4.8408349924=T 5.2431943596=T 0.194157255=T pbc="F F F"
C        2.13627340      -1.06705956      -0.58205999
N        3.42530458      -0.66784145      -0.03075543
N        3.64595645       0.67885050      -0.04707689
C        4.86612626       1.11190286       0.04863262
C        6.07757864       0.22361972       0.14741103
C        5.04313743       2.60291559       0.11040842
O        5.60718117       3.04126924       1.36472731
H        1.98541899      -2.13642466      -0.38389219
H        2.04885020      -0.88570039      -1.66836314
H        1.34742890      -0.50080513      -0.07130062
H        4.20920142      -1.24907261      -0.34716582
H        5.98916765      -0.48412749       0.98823300
H        6.98431681       0.81990146       0.30271081
H        6.21752963      -0.37766892      -0.76913570
H        4.07170008       3.08394224      -0.09101584
H        5.76680666       2.94213118      -0.64850411
H        4.97928173       2.77242742       2.05992656
