21
Properties=species:S:1:pos:R:3 -2070.7668434516886=T 13.488396=T 14.76501=T -8.6148=T -6.5972=T -8.651=T 0.8729=T -0.0089=T 1.533=T 8.06013=T -0.82531=T 6.0286704668=T 0.371521084=T pbc="F F F"
C        0.84905007      -0.15675351       0.21658139
C        2.33754472       0.03075428       0.24893062
C        3.04553540       1.14698715      -0.01154420
C        2.41453535       2.46779594      -0.37848509
C        4.57129566       1.17182644       0.04729984
C        5.21301065      -0.02473845       0.75727835
C        5.18305731       1.33650521      -1.35937485
H        0.57151962      -0.93988045      -0.50828240
H        0.29722056       0.75263204      -0.05198905
H        0.47695824      -0.49902592       1.19635048
H        2.89384497      -0.87148245       0.52074182
H        1.31990313       2.44674383      -0.33014711
H        2.69287434       2.78104039      -1.39726031
H        2.76564775       3.26309460       0.29966419
H        4.84163404       2.07775978       0.62452494
H        5.06512074      -0.95877597       0.19338335
H        4.80222427      -0.16577178       1.76723275
H        6.29790830       0.13085490       0.84918689
H        4.94639318       0.46047680      -1.98315731
H        6.27808357       1.42479417      -1.29778453
H        4.80698811       2.23058300      -1.87522977
