18
Properties=species:S:1:pos:R:3 -1773.5840261292972=T 11.8958=T 12.84826=T -8.7275=T -6.608=T -8.645=T 0.9247=T 0.0049=T 1.535=T 8.08834=T -0.85417=T 6.0380438084=T 0.395200619=T pbc="F F F"
C        2.08712345      -0.65126281       1.45697765
C        2.75613767      -0.24303774       0.13421717
C        3.24269293       1.17827853       0.14698448
C        4.49970983       1.63884699      -0.00505572
C        5.71004506       0.77193634      -0.23490223
C        4.79201032       3.11689927       0.04042737
H        1.69465337      -1.67738995       1.40345468
H        1.24696183       0.01725284       1.69880065
H        2.80247253      -0.60041035       2.29076141
H        2.02066944      -0.35941596      -0.68223734
H        3.57561841      -0.94066480      -0.09407625
H        2.45716709       1.92669630       0.31439554
H        5.48041958      -0.29988195      -0.25048390
H        6.46470794       0.94726123       0.55024374
H        6.19441818       1.02925835      -1.19195225
H        3.88365848       3.70915361       0.21489830
H        5.24836347       3.45766370      -0.90454465
H        5.51653044       3.35340642       0.83770136
