12
Properties=species:S:1:pos:R:3 -1244.3895471422868=T 8.881172=T 9.12019=T -9.9587=T -7.8866=T -9.954=T 0.2379=T -1.5001=T 0.138=T 9.64219=T 0.40373=T 4.9355478978=T 12.3073339054=T 0.251487418=T pbc="F F F"
C        0.88000207       0.00043579       0.07349355
C        2.41933992       0.00050427       0.05768432
C        3.06977796       1.12402151      -0.69148813
N        3.88317057       0.72707157      -1.61333492
N        3.88322411      -0.73118991      -1.61104319
C        3.06992201      -1.12531172      -0.68790826
H        0.49787931       0.88956164       0.59217195
H        0.49799210      -0.88684238       0.59540624
H        0.48269929      -0.00145128      -0.95001483
H        2.79056554       0.00219121       1.10167613
H        2.90954494       2.18861189      -0.50800446
H        2.90980216      -2.18933260      -0.50106841
