17
Properties=species:S:1:pos:R:3 -1751.9318989529577=T 11.149529=T 12.28515=T -9.1805=T -7.1232=T -10.51=T 1.0277=T -0.7555=T 0.327=T 9.63932=T 0.45102=T 3.7497209966=T 8.1824188742=T 0.119520989=T pbc="F F F"
C        0.90897432      -0.02380965       0.17275185
C        2.42181183      -0.00519337      -0.02831087
C        2.79213346       0.02405809      -1.51232699
C        3.18871037       1.09430644       0.79161973
C        4.08883855      -0.01231175       1.35200564
O        5.12770195      -0.01265686       1.97387664
C        3.21065669      -1.11670630       0.75370845
H        0.64673139      -0.04462937       1.24140502
H        0.45843620      -0.90912452      -0.30219300
H        0.44054108       0.86791204      -0.27194023
H        3.88340200       0.03694052      -1.65487224
H        2.37851902       0.91877338      -2.00248860
H        2.39549002      -0.86084049      -2.03335572
H        2.58193883       1.55823731       1.58574299
H        3.69869112       1.89090384       0.23039545
H        3.73608647      -1.88340752       0.16573081
H        2.61344670      -1.61943179       1.53130106
