14
Properties=species:S:1:pos:R:3 -1428.3017695760514=T 9.918122=T 10.81159=T -9.5094=T -7.2978=T -9.525=T 1.4821=T -0.1704=T 1.153=T 9.04119=T -0.59609=T 6.525259194=T 0.455163736=T pbc="F F F"
C        1.00560098      -0.09668338      -0.07995301
C        2.49692600       0.09215168      -0.02737783
O        3.26746598      -0.47823362      -1.10704273
C        3.23263771       0.95804088      -0.98499295
C        4.49350725       1.65158145      -0.62618209
C        5.66039032       1.03320447      -0.40920543
H        0.50584951       0.59568649       0.61382702
H        0.73766786      -1.12169400       0.21538021
H        0.62383241       0.08053491      -1.09431978
H        2.96950291      -0.03900117       0.95522321
H        2.62300001       1.45557699      -1.75276096
H        4.42033237       2.74215729      -0.55202991
H        5.74061822      -0.05117845      -0.50551761
H        6.55608846       1.59301645      -0.14031813
