13
Properties=species:S:1:pos:R:3 -1292.7942817218213=T 11.211459=T 11.68008=T -9.3553=T -7.3589=T -10.148=T 1.4048=T -0.3822=T 0.619=T 9.75123=T -0.11382=T 4.4164309144=T 10.5161577578=T 0.656303451=T pbc="F F F"
N        0.97773848       1.68355654      -1.50683589
C        2.22274000       1.98139313      -1.46787179
N        2.86720204       2.13410871      -0.24248967
O        4.23809238       1.72857903      -0.28733432
C        5.04325891       2.82461504       0.22083524
C        6.44004945       2.42864975       0.17807357
C        7.61260749       2.12162097       0.15322203
H        0.63187584       1.72677173      -2.47095833
H        2.89097203       2.20135139      -2.31570852
H        2.39154921       1.62996490       0.51468008
H        4.74115195       3.05853534       1.25685217
H        4.87390247       3.72483199      -0.39448234
H        8.64847973       1.85042149       0.12595778
