12
Properties=species:S:1:pos:R:3 -1295.93426735659=T 13.734377=T 14.37915=T -8.6545=T -6.8845=T -8.814=T 0.7476=T -0.7235=T -0.236=T 8.19247=T 0.8617=T 4.03822402=T 10.4924268374=T 0.546901473=T pbc="F F F"
C        0.93841472       0.00341824      -0.00898404
C        2.43652989       0.04575829      -0.00123173
C        3.20290668       1.18905857       0.00406676
S        4.90434098       0.85884700       0.01186189
C        4.62829795      -0.84777758       0.00837649
C        3.28168083      -1.11254528       0.00137595
Cl       2.63665415      -2.73760118      -0.00373724
H        0.51731145       1.01623881      -0.00346361
H        0.55465031      -0.53647349       0.86928312
H        0.56333170      -0.52305498      -0.89914166
H        2.85685427       2.21904632       0.00373160
H        5.45415706      -1.55079472       0.01163245
