13
Properties=species:S:1:pos:R:3 -1358.311424753114=T 12.485252=T 12.70939=T -7.7128=T -5.9257=T -7.879=T 0.9386=T -0.6578=T -0.061=T 7.34861=T 0.75698=T 3.7111985464=T 10.7981019218=T 0.274326019=T pbc="F F F"
C        0.82468818      -0.00745713       0.06413909
C        2.32057561      -0.02529391       0.04805616
C        3.18634505       1.05580270       0.01434372
N        2.79922250       2.40128206       0.03928522
N        4.53113743       0.76482859       0.03009249
C        4.72082727      -0.53138271       0.07082505
S        3.27012050      -1.48690339       0.08622432
H        0.46178272       0.80019629       0.71847839
H        0.40960703      -0.94912826       0.44673627
H        0.39553078       0.15394552      -0.93916706
H        3.57174356       3.01313913      -0.21763366
H        1.96606796       2.60929059      -0.50645328
H        5.69976141      -1.00635948       0.08763329
