15
Properties=species:S:1:pos:R:3 -1576.7532629557566=T 10.74371=T 11.49285=T -9.8748=T -7.759=T -9.8=T 0.3898=T -1.2736=T -0.544=T 9.29435=T 1.09037=T 4.1318706458=T 5.1620207254=T 0.344736629=T pbc="F F F"
C        0.86252376      -0.15158650       0.15413174
C        2.34904317       0.00938451       0.14008499
C        3.05827707       1.14368830      -0.05283883
C        2.47986471       2.51621551      -0.25288641
C        4.55874166       1.12349945       0.03934076
O        5.19572584      -0.03774078      -0.32344436
O        5.21351554       2.07666525       0.41068698
H        0.55632944      -0.94484999      -0.54588210
H        0.32509957       0.76520931      -0.11363060
H        0.51934039      -0.47192058       1.15117532
H        2.90157203      -0.91115159       0.36442102
H        1.38519303       2.51892678      -0.22757574
H        2.80950836       2.94250008      -1.21223367
H        2.85825480       3.18913056       0.52942919
H        4.53526062      -0.63830030      -0.72015829
