15
Properties=species:S:1:pos:R:3 -1472.6425041364603=T 11.817838=T 11.74744=T -8.0093=T -6.1077=T -8.888=T 0.4265=T -1.1862=T -0.19=T 8.39498=T 0.66752=T 4.4901653886=T 5.0375015856=T 0.367294678=T pbc="F F F"
C        1.74960349       0.15142861       1.31168504
O        1.67490121       1.47110555       0.75314467
C        2.81254879       1.92783516       0.14333846
C        2.68433694       3.27399754      -0.41311819
C        1.52513631       3.93888386      -0.55519043
N        3.86416273       1.17540067       0.12631480
N        5.01293036       1.66370960      -0.50358399
H        0.75187087      -0.04620174       1.71941589
H        2.50755925       0.10369612       2.10703428
H        2.00808664      -0.58818880       0.53946896
H        3.62589240       3.75672760      -0.68551829
H        0.57468633       3.48160251      -0.27930240
H        1.50725176       4.95705736      -0.94441555
H        5.63984013       0.87093394      -0.63667498
H        4.82296278       2.08202203      -1.42075828
