16
Properties=species:S:1:pos:R:3 -1574.4184881907902=T 11.513008=T 12.41364=T -9.3741=T -7.3051=T -10.799=T 1.4456=T -0.4565=T 0.339=T 10.36016=T 0.17945=T 5.319805309=T 6.5897443126=T 0.459468291=T pbc="F F F"
C        1.14714600       1.52735398       0.35056896
N        2.27242847       1.16676506      -0.14600474
O        3.25597917       2.14759101       0.04691956
C        4.50753188       1.67043206      -0.50610938
C        5.51124922       2.78021501      -0.40874261
C        6.24718923       3.01694775       0.88944625
C        6.97638571       2.42139581      -0.28915318
H        0.32563386       0.81961950       0.23869888
H        0.99371254       2.48560078       0.86073103
H        4.33714345       1.36568448      -1.55153416
H        4.84177980       0.78673121       0.06513441
H        5.27539193       3.66532381      -1.00428406
H        6.00860938       2.35954102       1.72675281
H        6.46946878       4.04669454       1.16906889
H        7.69510056       3.04161574      -0.82451070
H        7.23757003       1.36282824      -0.24561196
