11
Properties=species:S:1:pos:R:3 -1287.0871970400678=T 10.712767=T 11.60933=T -10.8226=T -8.662=T -10.18=T -0.5058=T -2.235=T -0.655=T 9.70083=T 1.14407=T 5.0284506076=T 10.5674631646=T 0.31776019=T pbc="F F F"
N        2.40672563      -0.73315365       2.51086020
C        2.92078230      -0.44121783       1.50619186
C        3.56685704      -0.06748300       0.24661046
C        4.09529603       1.34272290       0.27067368
C        5.36880788       1.65270384      -0.02801937
C        5.85803563       2.98905781      -0.03811339
N        6.29242339       4.07478620      -0.05841643
H        2.81596876      -0.16864833      -0.55654868
H        4.37009870      -0.78768475       0.03031915
H        3.38751456       2.13136356       0.53481971
H        6.09498009       0.87573326      -0.28346719
