19
Properties=species:S:1:pos:R:3 -1808.4366415068146=T 11.938519=T 13.25981=T -9.0407=T -6.8772=T -10.579=T 0.8982=T -0.0506=T 2.982=T 9.94321=T -2.68508=T 8.5352334358=T 10.8086407318=T 0.161220972=T pbc="F F F"
C        1.17578647      -0.33348136       0.03123150
C        2.69553483      -0.22654728      -0.16651477
N        3.15811515      -0.60738772      -1.51462661
C        3.19193237       1.18704214       0.17297255
C        4.69664840       1.33265178       0.20194134
C        5.48281623       1.81927421      -0.95892668
N        5.21658298       2.72184421       0.18625149
H        0.88405037      -0.11299370       1.07008705
H        0.82048050      -1.34654390      -0.21023656
H        0.64681288       0.37565995      -0.62582869
H        3.18076531      -0.93165960       0.53425178
H        2.72595048       0.01630553      -2.20485843
H        2.81828535      -1.54677236      -1.73793495
H        2.78977532       1.47469470       1.15907072
H        2.77583401       1.91189826      -0.54922127
H        5.21051295       0.61786892       0.85612201
H        4.96199386       2.08888655      -1.88102264
H        6.49059892       1.42144285      -1.10193691
H        6.05367363       2.78349681       0.77390908
