11
Properties=species:S:1:pos:R:3 -1211.085092103188=T 12.682097=T 12.13356=T -8.161=T -6.3071=T -8.265=T 0.0119=T -1.5528=T -0.424=T 7.78186=T 0.96111=T 3.8410738814=T 7.4849852256=T 0.452121955=T pbc="F F F"
N        0.99301448       0.00520600      -0.00043037
N        2.31576746      -0.04945501      -0.00014685
C        2.98829775       1.08984371       0.00004786
C        2.32272574       2.35017415       0.00011880
C        1.63334662       3.35567728      -0.00002692
C        4.41028396       1.04743689       0.00016157
C        5.62633637       1.07866118       0.00002057
H        0.50873699      -0.88238189       0.00008611
H        0.48409854       0.89401375       0.00036872
H        1.08329362       4.27479782      -0.00013837
H        6.69674847       1.08483613      -0.00008112
