12
Properties=species:S:1:pos:R:3 -1290.83420035341=T 9.31472=T 9.87143=T -8.7173=T -6.7004=T -9.036=T 1.1153=T -0.5928=T -0.31=T 8.48686=T 0.89383=T 4.4429267226=T 11.2018003378=T 0.465860385=T pbc="F F F"
C        0.93897289      -0.06465668      -0.00400772
C        2.41346413       0.09131471      -0.00513597
C        3.24002365       1.18753015      -0.00115176
O        2.81648659       2.49162555       0.00517908
C        4.55422626       0.64770317      -0.00524329
N        4.54536224      -0.67450298      -0.01104292
O        3.18709775      -1.03184092      -0.01135958
H        0.46943553       0.92619130       0.00853907
H        0.59779430      -0.62432832       0.87918952
H        0.59376887      -0.60343077      -0.89863343
H        3.59424811       3.07413762       0.00777246
H        5.51036968       1.16823717      -0.00395546
