15
Properties=species:S:1:pos:R:3 -1587.1229192570297=T 10.588173=T 11.4014=T -8.6841=T -6.5011=T -8.303=T 0.8944=T -0.0633=T 1.393=T 7.84902=T -0.73968=T 5.3089937298=T 11.4481481212=T 0.258099515=T pbc="F F F"
O        0.98847466      -0.29071231      -0.36686918
C        2.21731752       0.28523190       0.01847648
C        3.51354177      -0.44444493      -0.45709463
C        4.21303986       0.93662343      -0.20013693
C        2.86834735       1.48238494      -0.79111025
C        2.92387787       0.87879032      -2.19755815
C        3.34201499      -0.38008684      -1.98182571
H        0.27835547       0.15825571       0.12177002
H        2.23873203       0.48377584       1.10547112
H        3.85554751      -1.37924086       0.00254129
H        4.36538947       1.17051004       0.86509090
H        5.11621148       1.13758040      -0.78974183
H        2.54852729       2.52418639      -0.66547930
H        2.64629043       1.37181128      -3.12601348
H        3.50304229      -1.19421531      -2.68407036
