16
Properties=species:S:1:pos:R:3 -1574.8456439946779=T 9.738669=T 10.73228=T -9.2366=T -7.1202=T -11.314=T 0.9388=T 0.0134=T 2.859=T 10.63674=T -2.55703=T 9.1193810762=T 14.101795682=T 0.143902133=T pbc="F F F"
C        1.03028946      -0.09931484       0.22421519
C        2.50523442       0.07452208      -0.10846216
C        2.75674348       0.12604595      -1.60864030
C        3.26007264       1.14054701       0.73264246
C        4.04045562      -0.04586145       1.32044654
O        3.30417917      -1.00548059       0.51198517
H        0.88066567      -0.15704901       1.31109591
H        0.64624277      -1.02659158      -0.22573565
H        0.44099693       0.74404358      -0.16696757
H        3.83042619       0.22341114      -1.81996761
H        2.23094646       0.98031507      -2.06176701
H        2.39394330      -0.79550789      -2.08717946
H        2.63242079       1.69124197       1.44483772
H        3.85489889       1.85155543       0.14511154
H        5.11973402      -0.06818256       1.09461408
H        3.89610019      -0.22772433       2.39853115
