17
Properties=species:S:1:pos:R:3 -1688.0487023089413=T 10.399759=T 11.5024=T -9.5335=T -7.362=T -11.448=T 0.9254=T -0.0027=T 2.972=T 10.82435=T -2.68364=T 9.0994069316=T 12.16860597=T 0.114967263=T pbc="F F F"
C        1.79054830      -0.09589160      -1.33780284
O        2.29688576       0.53099899      -0.16896001
C        3.26610034       1.54829099      -0.46493951
C        2.59787707       2.87745201      -0.90447932
C        2.80260430       3.81957356       0.30396472
C        3.25853505       2.86407327       1.41044296
O        3.97838754       1.82435717       0.71317902
H        1.13700523      -0.91184725      -1.00484427
H        2.60707916      -0.51830212      -1.95521622
H        1.19893178       0.59452880      -1.96875567
H        3.98504280       1.14359744      -1.20249978
H        1.53399049       2.70470613      -1.11834782
H        3.06390944       3.27513506      -1.81592953
H        3.59341459       4.55274699       0.09079596
H        1.89167125       4.37015348       0.57516208
H        3.95503789       3.30956244       2.13247264
H        2.40262904       2.42772465       1.95422759
