20
Properties=species:S:1:pos:R:3 -1874.6818802381108=T 12.208086=T 13.7582=T -8.6267=T -6.4175=T -10.02=T 0.9896=T 0.0802=T 3.228=T 9.30359=T -2.96728=T 8.216242255=T 12.1398164208=T 0.124468109=T pbc="F F F"
C        2.60676529      -1.79223500       0.07014605
N        3.76432270      -0.92440129      -0.13585427
C        3.41509117       0.49739402      -0.07747129
C        4.63319892       1.37217349      -0.36920129
C        4.36384183       2.86265318      -0.23776916
O        3.43179742       3.27140855      -1.23853855
C        3.14667347       4.65826608      -1.15639728
H        2.90460914      -2.84255065      -0.05638546
H        1.75441424      -1.58509125      -0.61209721
H        2.24036640      -1.67306577       1.10211350
H        4.16790995      -1.12380072      -1.05546314
H        3.05202080       0.70982331       0.94470650
H        2.58872844       0.76651687      -0.76857680
H        5.00338043       1.17179429      -1.38962503
H        5.44384985       1.10006356       0.32548818
H        5.30850816       3.43249427      -0.35204678
H        3.95898060       3.09608962       0.76990231
H        2.44063307       4.89433032      -1.96268426
H        4.06040139       5.26998480      -1.28679937
H        2.68656673       4.92369231      -0.18491664
