16
Properties=species:S:1:pos:R:3 -1630.6315557339433=T 12.589325=T 13.50418=T -8.8909=T -6.8476=T -9.373=T 1.3589=T -0.2892=T 1.102=T 8.95528=T -0.55528=T 4.3646543608=T 10.670731104=T 0.334432336=T pbc="F F F"
C        1.04385375      -0.13015897      -0.10746783
N        2.45430780       0.01113178       0.25222922
C        2.95508795       1.38928719       0.06639394
C        2.49927113       2.26593649       1.21879677
C        1.73242350       3.34960455       1.07378333
C        4.41789172       1.37838848      -0.01583593
C        5.62935520       1.36748754      -0.08640522
H        0.75281081      -1.18391974      -0.00414918
H        0.80503846       0.20246110      -1.13974064
H        0.42530194       0.45780962       0.58576167
H        3.02705012      -0.61721362      -0.31476636
H        2.57059124       1.84240267      -0.87711784
H        2.83630290       1.93409472       2.20497678
H        1.39209911       3.67921188       0.08862161
H        1.42439756       3.94837545       1.93193022
H        6.69849681       1.36020085      -0.14780054
