13
Properties=species:S:1:pos:R:3 -1332.622139772303=T 9.473576=T 9.87847=T -9.2807=T -7.2269=T -10.143=T 0.7497=T -0.8997=T 0.574=T 9.73445=T 0.03878=T 4.9429622606=T 6.3276627058=T 0.127157059=T pbc="F F F"
O        0.94896460      -0.15057592       0.33250839
C        2.31266105       0.04653089      -0.08021772
C        2.86567911       1.23446975       0.68715359
N        3.91136773       1.00867460       1.39532473
N        4.38584838      -0.33130434       1.13822309
C        3.48084583      -1.30654536       1.78830319
C        3.32006020      -1.01487892       0.33131088
H        0.52423897      -0.74053658      -0.31368817
H        2.34990008       0.21670343      -1.17218295
H        2.37349461       2.20922321       0.71708632
H        3.95436090      -2.24185763       2.09198240
H        2.73185356      -0.89895420       2.47057048
H        3.68601499      -1.72871893      -0.40738421
