16
Properties=species:S:1:pos:R:3 -1589.585049866922=T 9.731611=T 10.72292=T -9.2716=T -7.0844=T -11.295=T 0.9739=T 0.0466=T 3.098=T 10.60458=T -2.83324=T 9.1363671582=T 10.9530224288=T 0.125996346=T pbc="F F F"
C        1.01495074      -0.04366900       0.01577292
C        2.52956625       0.04329214       0.06862620
C        3.10834023       1.19507818       0.89366980
C        4.51497027       0.67494285       1.21529749
C        4.28375589      -0.83947089       1.37023124
O        3.04308131      -1.14965438       0.70113655
H        0.69876829      -0.94348704      -0.52933143
H        0.59834283       0.83349665      -0.50017733
H        0.59704509      -0.08922275       1.03207127
H        2.92980377       0.10232714      -0.96642313
H        2.51541454       1.32111784       1.81440540
H        3.11204455       2.14944950       0.34908743
H        5.19576334       0.87816777       0.37482186
H        4.95101964       1.12559456       2.11699818
H        5.10012060      -1.43327399       0.92547807
H        4.18070267      -1.13444857       2.42830548
