17
Properties=species:S:1:pos:R:3 -1645.2094975381638=T 10.964175=T 11.70686=T -9.0671=T -7.0511=T -10.064=T 0.731=T -0.2652=T 0.453=T 9.74819=T 0.15796=T 4.3501232016=T 5.8499942422=T 0.195907529=T pbc="F F F"
C       -0.35043920      -1.23720628       0.53483005
N        0.88476186      -1.46595290       1.27099947
C        2.15057866      -1.46545140       0.54408459
C        2.36519743      -2.71419180      -0.31635062
N        2.46160692      -3.90322990       0.53564927
C        0.84793112      -1.60736179       2.63619379
O       -0.16681278      -1.60967605       3.32724706
H       -1.17153724      -1.22409519       1.26096764
H       -0.53377506      -2.03257684      -0.20362896
H       -0.30972387      -0.27131641       0.00619750
H        2.96071095      -1.40828062       1.28654828
H        2.20028421      -0.56299107      -0.08974363
H        3.32263277      -2.58907214      -0.84641588
H        1.57718964      -2.76588156      -1.09581343
H        1.56335711      -4.07585664       0.99507535
H        2.65936512      -4.73027795      -0.03078329
H        1.87004236      -1.72833145       3.06114283
