17
Properties=species:S:1:pos:R:3 -1752.7001010678891=T 11.399939=T 12.77997=T -9.1221=T -7.1676=T -10.49=T 1.2122=T -0.4804=T 0.299=T 9.44628=T 0.43648=T 3.7879458804=T 12.1110888646=T 0.160451316=T pbc="F F F"
C        1.06371481      -0.56625249       0.02773293
C        2.52737956      -0.62303914      -0.33878366
C        3.01052279      -0.19658296      -1.68193175
C        3.32485910       0.67926621      -0.47070519
C        4.72677436       0.68884053       0.03963383
C        5.19088550       1.97303459       0.69867795
O        5.46132366      -0.29025143      -0.06058668
H        0.92486600      -0.45613764       1.11337136
H        0.54990348      -1.48838070      -0.28420358
H        0.56059183       0.27801517      -0.46652535
H        3.11050643      -1.42519461       0.12224299
H        2.28577353       0.20204213      -2.39346715
H        3.86696017      -0.72269637      -2.10544245
H        2.75810648       1.60715135      -0.36825676
H        5.13008852       2.80750267      -0.01687133
H        6.22083741       1.86402656       1.05484588
H        4.52851638       2.22686610       1.54050899
