15
Properties=species:S:1:pos:R:3 -1569.012344770195=T 10.950187=T 11.90277=T -9.4755=T -7.3162=T -9.807=T 1.2023=T -0.5544=T 0.034=T 10.33748=T 0.6583=T 4.4063260554=T 6.6483648934=T 0.420382434=T pbc="F F F"
C        2.36503127      -1.44555005       1.30882044
C        2.53588922      -1.08289802      -0.16206589
C        2.63192364       0.40587495      -0.39996105
O        2.59106481       1.27762959       0.44118316
O        2.77894864       0.65199237      -1.75818146
C        2.88407345       1.97802458      -2.15628853
C        3.01605045       2.27885097      -3.44836953
H        2.29492961      -2.53492159       1.42647743
H        1.45523681      -0.99316383       1.72463252
H        3.21349104      -1.08672612       1.90590774
H        1.70101530      -1.46063434      -0.77441567
H        3.44034285      -1.54316968      -0.59229478
H        2.84785452       2.69891373      -1.33936195
H        3.04453918       1.50922748      -4.21913691
H        3.09790923       3.32212995      -3.74550553
