21
Properties=species:S:1:pos:R:3 -2067.806104321463=T 12.969851=T 14.65914=T -9.5015=T -7.3656=T -10.626=T 0.9096=T 0.0352=T 3.03=T 10.22823=T -2.69731=T 8.5925893594=T 10.4512262896=T 0.201341862=T pbc="F F F"
C        2.83786567      -1.03391841      -0.41995620
C        2.34820730       0.24247062       0.27349795
C        3.38376249       1.34864865       0.24181430
C        3.50370632       2.27508815      -0.95468031
C        3.06296624       2.82721675       0.38724028
C        1.62708276       3.29106783       0.55020983
C        4.06430878       3.67297830       1.15367252
H        2.07538835      -1.82577640      -0.38846661
H        3.74618914      -1.42485295       0.06375463
H        3.08253958      -0.83928478      -1.47505823
H        2.08430676       0.01334181       1.32097226
H        1.41768325       0.58159845      -0.20889057
H        4.33909399       1.05593996       0.69318894
H        2.74256615       2.17784396      -1.73306715
H        4.49707331       2.53546190      -1.32526227
H        0.92238408       2.69657785      -0.04590805
H        1.52640770       4.34032606       0.22924787
H        1.30852068       3.23509856       1.60390564
H        5.09225314       3.31136328       1.00522925
H        3.85372794       3.65394061       2.23540283
H        4.02714638       4.72434980       0.82450309
