12
Properties=species:S:1:pos:R:3 -1274.5946185194407=T 11.681045=T 12.15117=T -7.8929=T -5.9722=T -8.207=T 0.7821=T -0.1556=T 0.58=T 7.71668=T 0.08345=T 3.6384559602=T 10.8336611066=T 0.526503769=T pbc="F F F"
N        0.91174229      -0.20202763       0.13975158
C        2.30612854      -0.02583335       0.04015794
C        3.12286573       1.09311600      -0.06447076
Cl       2.52962741       2.72560812      -0.17592154
C        4.48259164       0.67797607      -0.06901515
C        4.47095609      -0.70197608       0.02684292
N        3.15662473      -1.11262376       0.09764264
H        0.48793946       0.60679115       0.59784890
H        0.47070144      -0.29486743      -0.77969167
H        5.35646405       1.31622755      -0.14276279
H        5.28705146      -1.41532534       0.04599259
H        2.82970715      -2.06059531       0.25017534
