16
Properties=species:S:1:pos:R:3 -1591.402480988796=T 11.29898=T 12.3173=T -8.6514=T -6.5776=T -9.131=T 0.9635=T -0.0202=T 1.183=T 8.65203=T -0.60054=T 6.08461295=T 0.319182771=T pbc="F F F"
C        4.20220842      -0.96325131      -0.40605141
O        3.18679303      -0.07719084       0.07293627
C        3.54724371       1.22960121       0.21197020
C        4.73531132       1.80028520      -0.05354828
C        4.97687553       3.25347381       0.14182603
C        4.40248260       4.02873273       1.27623226
N        5.83218991       3.64834817       1.29692799
H        3.74337627      -1.95731659      -0.44491632
H        5.06650098      -0.97623131       0.27806267
H        4.53876149      -0.66826908      -1.41357194
H        2.70193910       1.80879755       0.59046288
H        5.57226203       1.21460529      -0.43900585
H        5.13907913       3.82523254      -0.78052397
H        3.79343748       3.51586572       2.02374492
H        4.13241558       5.07299859       1.09931189
H        6.40007341       4.45941832       1.02866266
