16
Properties=species:S:1:pos:R:3 -1513.6536917124793=T 9.319539=T 10.30098=T -9.9253=T -7.7331=T -11.89=T 1.0088=T 0.0909=T 3.158=T 11.12572=T -2.86339=T 9.470856589=T 10.6770791872=T 0.090542943=T pbc="F F F"
C        2.15319295       4.08000036       2.15724425
O        2.32617705       2.71229958       2.54274060
C        3.23225846       1.96869948       1.72862519
C        2.86722268       1.93724527       0.25218092
O        4.56489107       2.45176779       1.81612360
C        5.12875944       2.30370685       3.12098159
H        1.59163245       4.55602157       2.97055180
H        1.57261732       4.17491379       1.22348895
H        3.12074479       4.59276355       2.03447644
H        3.17576325       0.95480085       2.17027947
H        3.04969529       2.91105972      -0.22049987
H        1.81002165       1.66709985       0.13305921
H        3.48484513       1.19020258      -0.26194456
H        6.16145444       2.66789460       3.05928963
H        5.13500255       1.24248702       3.43120359
H        4.57505149       2.88793714       3.87341920
