15
Properties=species:S:1:pos:R:3 -1456.092264639959=T 11.380497=T 11.52254=T -9.2109=T -7.2952=T -9.717=T 0.4742=T -1.2144=T -0.144=T 9.07987=T 0.57059=T 4.6608693134=T 5.7557276864=T 0.603633148=T pbc="F F F"
C        2.51013552      -0.72273962       0.38200150
O        3.05520763       0.08102471      -0.67744028
N        3.25253120       1.40712352      -0.19282900
C        4.61000136       1.81679245      -0.26522520
N        5.62183643       1.04957436      -0.46955721
C        4.82679264       3.25567971      -0.01461323
C        3.93312081       4.11330158       0.50106144
H        2.41772438      -1.72973917      -0.04461525
H        1.51840054      -0.35566298       0.68933633
H        3.18308235      -0.74269461       1.25259849
H        2.63735549       2.01903111      -0.73904640
H        5.28543072       0.09161716      -0.65019034
H        5.83346733       3.58526697      -0.28080459
H        2.93857145       3.79753176       0.82150689
H        4.18787215       5.16330304       0.64631685
