16
Properties=species:S:1:pos:R:3 -1627.1570077186673=T 11.119832=T 11.90594=T -8.3362=T -6.2808=T -8.753=T 0.9099=T -0.0734=T 1.307=T 8.22427=T -0.69925=T 5.7674815592=T 0.249127969=T pbc="F F F"
C        1.04167744       0.08830315      -0.00081515
C        2.52063162      -0.05727802      -0.07699839
C        3.30430921      -1.15102987      -0.10587823
C        4.75407393      -0.73369423      -0.04542721
N        5.34708532      -1.12103132       1.24552975
C        4.60592640       0.78216950      -0.35657881
O        3.21501612       1.13705249      -0.10802626
H        0.56128679      -0.89525121       0.05465120
H        0.65632719       0.62580811      -0.88009636
H        0.75905098       0.67249161       0.88792909
H        2.96139355      -2.18017028      -0.05176964
H        5.36710614      -1.21151589      -0.82760491
H        4.81932171      -0.69010487       2.00978869
H        6.31245544      -0.78712328       1.31271415
H        4.81376847       0.99394550      -1.41854410
H        5.23641969       1.42133860       0.27736619
