17
Properties=species:S:1:pos:R:3 -1686.9892495709673=T 13.671515=T 13.49774=T -7.6516=T -5.8909=T -8.516=T 1.3605=T -0.2069=T 0.687=T 7.74455=T -0.09792=T 4.557043437=T 5.1031273754=T 0.481438346=T pbc="F F F"
C        1.11910290      -0.27484615      -0.09433791
N        2.52501947       0.08968380      -0.11029633
C        2.87073862       1.32760403      -0.02146017
C        1.96685102       2.52943401       0.10679647
N        4.24054718       1.58044225      -0.05010242
C        4.89726593       2.79569133       0.03069448
C        6.23409925       2.96036699       0.00100203
H        1.04028786      -1.36982262      -0.13297238
H        0.56500403       0.12197196      -0.96449241
H        0.59203888       0.05824636       0.81834667
H        0.91735678       2.22000532       0.12337122
H        2.10715382       3.22157103      -0.73659316
H        2.17480471       3.08621592       1.03252298
H        4.79707937       0.72973048      -0.13863451
H        4.24109781       3.66160324       0.12392592
H        6.92265469       2.11910258      -0.09107608
H        6.65713767       3.95926948       0.07051559
