15
Properties=species:S:1:pos:R:3 -1571.388521235533=T 10.086388=T 11.31118=T -9.89=T -7.8346=T -11.22=T 0.7011=T -0.3691=T 0.074=T 10.15447=T 0.53594=T 4.3049303046=T 11.3602048514=T 0.258735134=T pbc="F F F"
C        0.96845315       0.03589694      -0.12523382
C        2.47258346      -0.00478867       0.01348218
C        3.32273900      -0.73889407      -0.97846231
C        3.33783294       0.78563543      -0.96416482
C        4.52907633       1.57211820      -0.52814113
O        5.30241015       1.04896015       0.48458100
O        4.83787626       2.63730977      -1.01827325
H        0.54879584       0.92879652       0.35962903
H        0.50892142      -0.85064736       0.33606796
H        0.67162591       0.05498529      -1.18372951
H        2.82814671      -0.00690272       1.04872593
H        2.82996204      -1.20672575      -1.83179321
H        4.21662859      -1.26618680      -0.64021070
H        2.81121402       1.28478797      -1.77771884
H        4.93806417       0.19234511       0.77781150
