14
Properties=species:S:1:pos:R:3 -1323.752518020582=T 10.953576=T 12.12874=T -10.1251=T -8.1436=T -10.646=T 0.6326=T -1.1216=T -0.286=T 9.95069=T 0.90194=T 5.5385910046=T 6.699335538=T 0.308249846=T pbc="F F F"
C        4.26715926      -1.14411033       0.53112677
N        3.71020576      -0.08982198      -0.32992206
S        3.51874254       1.44567351       0.34651515
O        2.35983603       2.04403976      -0.32643103
O        3.60775877       1.38618018       1.81116830
C        4.97946186       2.30778028      -0.18803028
C        5.82912811       1.85629791      -1.10986962
H        4.33832735      -2.06120851      -0.06746520
H        3.66401018      -1.33417903       1.43051004
H        5.28044140      -0.86072685       0.84153189
H        2.81794895      -0.32523364      -0.77000202
H        5.08962852       3.25573606       0.34248012
H        5.66484318       0.89730834      -1.60226942
H        6.70453808       2.44392429      -1.38947265
