17
Properties=species:S:1:pos:R:3 -1690.64462835348=T 10.594082=T 11.86396=T -9.424=T -7.2292=T -10.791=T 1.0632=T -0.8572=T 0.114=T 9.92469=T 0.53056=T 3.7154636648=T 8.236823931=T 0.10761053=T pbc="F F F"
C        4.04441154      -0.91573381       0.76630380
C        3.67158362       0.41269556       1.42813179
C        3.35567077       1.52692499       0.41562265
C        2.82545845       2.79893873       1.09603265
O        3.82810447       3.29285374       1.99555375
C        4.57786329       1.88274631      -0.41862009
O        4.55649758       2.07121308      -1.62149639
H        4.24310163      -1.68967462       1.52083023
H        4.94712737      -0.82308480       0.14351842
H        3.23432281      -1.27983593       0.11632557
H        4.48304053       0.75200067       2.09091946
H        2.78884937       0.27400848       2.07391791
H        2.57567265       1.19625160      -0.29114010
H        1.89533137       2.54581854       1.63980542
H        2.58094564       3.54967900       0.32315416
H        3.50503302       4.12401079       2.37980108
H        5.53233591       1.98024766       0.15953971
