18
Properties=species:S:1:pos:R:3 -1792.6126688601416=T 12.504578=T 13.44204=T -8.5855=T -6.493=T -9.421=T 1.3678=T -0.0369=T 1.283=T 8.889=T -0.6918=T 6.5608927704=T 0.476806659=T pbc="F F F"
C        0.97196541      -0.32731524       0.47126754
C        2.37183725       0.05479127       0.03504976
N        2.92974520       1.32886733       0.60436429
C        4.18301177       0.60505304       0.99144758
C        3.56794027      -0.77410913       0.61211778
C        4.32354138      -1.66568963      -0.31135087
C        4.56353452      -2.96794055      -0.11002800
H        0.67692558      -1.29289761       0.03397911
H        0.24141672       0.42840574       0.14388874
H        0.90978723      -0.41521117       1.56756417
H        2.41517004       0.10130656      -1.06805749
H        2.40038864       1.58946749       1.44133203
H        5.02681474       0.89886095       0.34567442
H        4.49370917       0.71832410       2.04018046
H        3.25205164      -1.33250198       1.50879797
H        4.69842898      -1.19271319      -1.22823319
H        4.20798927      -3.47809801       0.78883349
H        5.11930218      -3.56686996      -0.83331780
