11
Properties=species:S:1:pos:R:3 -1242.1865860356118=T 9.17451=T 9.60507=T -10.1894=T -8.1279=T -10.936=T -1.7855=T -3.6471=T -1.984=T 10.13371=T 2.3229=T 3.0117191288=T 7.193605727=T 0.304685206=T pbc="F F F"
C        0.98782911       0.06896514      -0.00541662
C        2.46469917       0.06539328      -0.00212862
N        3.24224618       1.09466139       0.00120072
C        4.57774325       0.50715222       0.00232453
N        4.70037473      -0.77765158       0.00027187
C        3.33227309      -1.22510604      -0.00261330
O        2.94433474      -2.37008499      -0.00445583
H        0.59599437       1.09130926       0.00423842
H        0.60838597      -0.48782165       0.86510812
H        0.61307086      -0.46806702      -0.89043379
H        5.43077854       1.18859000       0.00490450
