13
Properties=species:S:1:pos:R:3 -1335.2012547369663=T 9.992722=T 11.02453=T -9.6537=T -7.4484=T -9.935=T 0.9434=T -0.0152=T 2.257=T 9.52076=T -1.84964=T 4.3732465906=T 10.627150025=T 0.361139678=T pbc="F F F"
C        5.39216941      -2.09277763       0.00566746
C        4.63035010      -1.14761209       0.00453396
C        3.73576580       0.00480585       0.01684452
C        4.47712289       1.33121925       0.10607047
C        4.92771734       2.05125826      -1.11170119
N        3.72384811       2.50571113      -0.37387338
H        6.05343832      -2.93486344      -0.00020078
H        3.03906898      -0.07958925       0.86813812
H        3.11332616       0.01335024      -0.89251624
H        5.09689283       1.44710255       1.00086613
H        4.72015547       1.62269927      -2.09538120
H        5.84407846       2.64299450      -1.04961425
H        3.95437613       3.32494136       0.19634637
