13
Properties=species:S:1:pos:R:3 -1334.9832777367856=T 10.116203=T 10.96684=T -9.1295=T -6.9817=T -9.746=T 0.9229=T -0.1091=T 2.351=T 9.34066=T -1.91039=T 4.381293282=T 10.5176951842=T 0.439327902=T pbc="F F F"
C        0.93207444      -0.04902783       0.02578934
C        2.14617229      -0.02896707       0.04462201
C        3.59893675       0.02204202       0.05414689
C        4.32573980       1.10720378       0.90619487
C        5.33284565      -0.01035146       1.25971647
N        4.30231547      -1.01451620       0.87366563
H       -0.13843321      -0.07326943       0.02015657
H        3.96381383       0.06619611      -0.99196368
H        3.71535269       1.40738057       1.76608562
H        4.69370439       1.99032458       0.37265752
H        6.21714829       0.01278517       0.59577474
H        5.66864687      -0.08673751       2.30420815
H        4.64407273      -1.81492272       0.33566586
