21
Properties=species:S:1:pos:R:3 -1957.8532391157596=T 12.442531=T 13.55842=T -8.8701=T -6.6812=T -10.277=T 0.8909=T -0.0865=T 2.96=T 9.7537=T -2.63466=T 8.382941432=T 13.119082646=T 0.102620605=T pbc="F F F"
C        1.25673621      -0.31575467       1.16443470
C        2.71634820      -0.36326387       0.69393382
C        2.88491138      -1.47760276      -0.34961875
C        3.18708214       1.01950122       0.16488939
N        3.02908300       2.13303841       1.12508871
C        4.65162655       1.03469006      -0.30811643
N        5.57370437       0.85562782       0.82823358
H        1.09715587       0.42582554       1.95997456
H        0.94350202      -1.29211205       1.56232689
H        0.58065665      -0.06787764       0.32856834
H        3.35998104      -0.60561716       1.55850260
H        2.36156291      -1.22629157      -1.28748555
H        2.45881989      -2.42204016       0.02050361
H        3.93930304      -1.66924655      -0.58919720
H        2.56659892       1.27256588      -0.71562612
H        3.38985556       1.83363896       2.03704729
H        2.03832886       2.33269505       1.27204096
H        4.81078764       1.98433003      -0.85264038
H        4.82312357       0.21695991      -1.02217409
H        5.66240880       1.74698073       1.32363735
H        6.50960337       0.63500283       0.48347672
