13
Properties=species:S:1:pos:R:3 -1422.2256286463423=T 9.950568=T 10.43794=T -9.3757=T -7.3485=T -10.248=T -0.4121=T -2.1627=T -0.705=T 9.63841=T 1.30249=T 3.486362334=T 5.4306735902=T 0.34353806=T pbc="F F F"
C        1.03145643      -0.02654751       0.18739637
C        2.35280351       0.02714237      -0.02133618
C        3.29273684       1.20031315      -0.04113350
O        4.46792706       0.74835421      -0.75106522
C        4.60039470      -0.65840194      -0.54151235
C        3.18849159      -1.18703002      -0.29793030
O        2.82851142      -2.35186681      -0.31392924
H        0.52784310      -0.99544725       0.15611692
H        0.42871104       0.86030000       0.38906426
H        3.56453190       1.50640239       0.98947651
H        2.90171729       2.07792053      -0.57378800
H        5.06377712      -1.11565432      -1.42620125
H        5.22729800      -0.88826480       0.34486195
