17
Properties=species:S:1:pos:R:3 -1811.8516623842436=T 12.520967=T 13.27591=T -7.9307=T -5.9468=T -8.022=T 1.0926=T -0.3781=T 0.758=T 7.43531=T -0.18316=T 4.5402185368=T 6.6230965466=T 0.607872988=T pbc="F F F"
C        0.98850731       0.06954630       0.00783861
C        2.48517102      -0.00291464       0.00699018
C        3.24986457      -1.12546986       0.01015666
C        4.69998425      -0.74613213       0.00481733
C        4.66643719       0.75251782      -0.00308796
C        3.37707826       1.18198957      -0.00088425
C        2.89802303       2.60935243      -0.00184504
H        0.54517969      -0.93487877       0.01207872
H        0.60909269       0.60255329      -0.87885344
H        0.60990784       0.61036205       0.89006567
H        2.88520743      -2.15202245       0.01454893
H        5.23264599      -1.15409198      -0.87431255
H        5.23640597      -1.14446632       0.88611468
H        5.55608435       1.38178580      -0.00896846
H        1.80350047       2.67404523      -0.06279134
H        3.31028966       3.16927355      -0.85408441
H        3.20722030       3.13602012       0.91359668
