13
Properties=species:S:1:pos:R:3 -1385.632877249791=T 10.336159=T 10.607=T -7.4866=T -5.5718=T -7.783=T 0.9107=T -0.0734=T 0.923=T 7.29584=T -0.32114=T 4.539623404=T 6.0440323322=T 0.36699748=T pbc="F F F"
N        0.91296459      -0.22871855       0.04860189
C        2.31293125      -0.02939488       0.02773824
C        3.12167257       1.09673417      -0.07392509
O        2.60555500       2.37226216      -0.18037766
C        4.48184091       0.68212944      -0.04627133
C        4.47822062      -0.70247110       0.07299684
N        3.17331504      -1.11639248       0.11642929
H        0.47650352       0.26068189       0.83329894
H        0.47325663       0.12251056      -0.80530370
H        3.35082472       2.99167746      -0.25101148
H        5.36438083       1.31389010      -0.10502846
H        5.30070375      -1.40661322       0.12925976
H        2.84020056      -2.07042555       0.19993276
