14
Properties=species:S:1:pos:R:3 -1479.4598916217424=T 10.81892=T 11.88664=T -9.3814=T -7.2557=T -9.593=T 1.0513=T -0.3899=T 0.904=T 11.8221=T -0.92703=T 5.4175434728=T 6.2722161666=T 0.367422585=T pbc="F F F"
C       -0.02713368      -0.14646341      -0.10964101
C        1.44840503      -0.38899979      -0.17654329
C        2.03196021      -1.55852561      -0.49006397
O        2.12077457       0.77735769       0.13593695
C        3.54384680       0.69606162       0.11786227
C        4.09479548       2.00740103       0.45697151
N        4.58021272       3.03330906       0.71967134
H       -0.31503399       0.65773949      -0.80200995
H       -0.31722889       0.17231775       0.90207855
H       -0.58046279      -1.05544306      -0.36888544
H        1.40293988      -2.41525202      -0.72041598
H        3.10795493      -1.71051012      -0.52978572
H        3.90960352       0.40067980      -0.88212030
H        3.90560621      -0.04752242       0.85090505
