17
Properties=species:S:1:pos:R:3 -1683.5473484780177=T 11.259525=T 12.35028=T -8.975=T -7.0015=T -10.072=T 0.8199=T -0.1662=T 1.387=T 9.2562=T -1.00429=T 5.376776876=T 11.8022149414=T 0.178650866=T pbc="F F F"
C        3.48650653      -1.13435193       0.20730032
C        3.30914823      -0.05390929       1.26924040
N        3.20618708       1.30655296       0.71168084
C        2.82382090       2.27611209       1.74070563
C        4.40042607       1.73283411      -0.01211686
C        5.62924007       1.79435005       0.81476139
N        6.55024436       1.80947855       1.53178867
H        3.40278499      -2.12608850       0.67251976
H        4.47319874      -1.09249821      -0.27565878
H        2.71220244      -1.05096824      -0.56861769
H        4.12514156      -0.12166345       2.02085262
H        2.36687125      -0.23102071       1.81019496
H        1.86084220       1.97365710       2.17410734
H        2.69534893       3.26759641       1.28317799
H        3.56420140       2.36289693       2.56228784
H        4.22363440       2.73215501      -0.43867636
H        4.59069084       1.05400711      -0.85593804
