15
Properties=species:S:1:pos:R:3 -1475.6865620851934=T 10.326737=T 11.01913=T -8.8663=T -6.8=T -10.041=T 0.7885=T -0.4029=T 0.665=T 9.53818=T 0.00434999999999=T 5.4833180458=T 6.1534623758=T 0.154368251=T pbc="F F F"
N        2.44647263      -0.34850642       1.47784738
C        2.51594599       0.04014853       0.05576581
C        2.92328121       1.47676692      -0.09272637
N        3.91954044       1.80860464      -0.83583430
O        4.09879728       3.20203560      -0.81428784
C        2.98618277       3.81075320      -0.07222942
C        2.27048082       2.64395375       0.61180071
H        2.43728242      -1.36771681       1.54842744
H        1.56568142      -0.03049680       1.88977202
H        1.56443996      -0.11708570      -0.49391956
H        3.28073438      -0.57104029      -0.44192845
H        2.34245964       4.33020129      -0.79993299
H        3.41860288       4.54280625       0.62178998
H        1.18017892       2.66442643       0.46564291
H        2.46522925       2.58274941       1.69481268
