20
Properties=species:S:1:pos:R:3 -1877.4534619474184=T 12.265915=T 13.75081=T -8.5598=T -6.4394=T -9.962=T 0.9925=T 0.0942=T 3.335=T 9.21111=T -3.08297=T 8.1243810276=T 12.1070221238=T 0.12210552=T pbc="F F F"
C        0.68667181       2.36022594      -1.00781770
C        1.98121843       1.67210162      -1.42541027
N        3.09041144       2.05923223      -0.55280003
C        4.33755999       1.37085174      -0.87416731
C        5.42159535       1.71582880       0.12868715
O        5.03404587       1.20958307       1.40752285
C        5.96978755       1.55197873       2.41816347
H       -0.13612985       2.08872218      -1.68392355
H        0.80588747       3.45270078      -1.02069981
H        0.39144258       2.06294565       0.01062850
H        2.24448049       1.97070332      -2.45532429
H        1.82748336       0.56951338      -1.45148427
H        2.84985567       1.83335702       0.41736816
H        4.67528623       1.69616604      -1.87326044
H        4.22717008       0.26395444      -0.91480463
H        5.54951886       2.81516991       0.18236304
H        6.38605030       1.26617066      -0.18166817
H        5.59841707       1.13217832       3.36161031
H        6.06971518       2.64894391       2.52414191
H        6.97012212       1.12886226       2.20432509
