14
Properties=species:S:1:pos:R:3 -1420.462744206285=T 9.950896=T 10.84899=T -10.1615=T -7.8412=T -9.918=T 0.9039=T -0.0959=T 2.103=T 9.4935=T -1.71842=T 4.3565084806=T 10.697016136=T 0.530885653=T pbc="F F F"
C        0.97221708      -0.02509355      -0.03350934
C        2.51141289      -0.01489422       0.00271720
C        3.04219739      -0.78598822       1.21787065
O        3.04146067      -0.71117272      -1.15234348
C        3.00236164       1.37413912       0.01708863
C        3.39018922       2.52476393      -0.00477257
H        0.60253780       0.51038744      -0.91905735
H        0.55508025       0.46225350       0.85844361
H        0.62182087      -1.06530932      -0.07503563
H        2.67966143      -0.33387140       2.14948153
H        4.13894520      -0.77713066       1.21862297
H        2.69445762      -1.82657614       1.16232977
H        2.85719275      -0.15859564      -1.93315209
H        3.74484520       3.53529789      -0.01806389
