15
Properties=species:S:1:pos:R:3 -1467.1403205205056=T 12.727151=T 12.54129=T -8.6444=T -6.7394=T -9.204=T 0.4308=T -1.2163=T -0.408=T 8.63616=T 0.96569=T 5.0678781556=T 0.613053204=T pbc="F F F"
N        2.00856453      -0.78118030      -1.01058743
C        3.15455851      -0.33056745      -0.20199593
C        3.03002524       1.13003876       0.10453058
C        3.99590658       2.04302653      -0.12767318
C        3.85557664       3.44694062       0.18332808
N        4.83328273       4.25585606      -0.06513566
O        4.49242747       5.57467454       0.30593908
H        2.04425137      -1.79543025      -1.13288099
H        2.06545973      -0.36971256      -1.94559216
H        4.14825519      -0.52817388      -0.65158279
H        3.11838045      -0.89484847       0.74735480
H        2.07124732       1.44513091       0.53137439
H        4.94945823       1.73871137      -0.57087316
H        2.91962167       3.81707096       0.62520533
H        5.30067434       6.06540315       0.07066903
