19
Properties=species:S:1:pos:R:3 -1832.9689112264443=T 12.30845=T 13.54747=T -8.4404=T -6.5061=T -9.486=T 0.7858=T -0.1769=T 1.154=T 8.64642=T -0.52184=T 4.909473642=T 8.5637502158=T 0.230418246=T pbc="F F F"
C        1.00907843      -0.50508609       1.49324583
C        2.09011337      -0.63686228       0.42007265
C        3.19049953       0.43148226       0.55214834
C        4.25131669       0.31979076      -0.53101046
N        4.20220917       0.86428818      -1.70379484
N        5.30363496      -0.51416843      -0.21537120
C        6.43124454      -0.65733648      -1.12238266
H        0.23436817      -1.27612341       1.37577944
H        0.51360046       0.47670985       1.44181341
H        1.43305921      -0.60927807       2.50403719
H        1.63743580      -0.55719463      -0.58146007
H        2.55192075      -1.63620479       0.46949836
H        3.65146533       0.35560600       1.55342178
H        2.74034249       1.43512291       0.49287423
H        3.33365291       1.40194564      -1.79764485
H        5.47655022      -0.67552049       0.77062798
H        6.06603543      -0.96737556      -2.11012262
H        7.10995066      -1.42394168      -0.72862531
H        6.98186187       0.28894630      -1.25800721
