16
Properties=species:S:1:pos:R:3 -1638.6618952572971=T 12.539442=T 13.47268=T -9.3094=T -7.0621=T -9.38=T 1.4049=T -0.2021=T 1.115=T 8.94748=T -0.54945=T 4.3183455898=T 10.6912755842=T 0.603521693=T pbc="F F F"
N        2.78009332      -0.67199250      -1.24661285
C        2.41086863      -0.00474533       0.00371881
C        2.98307721       1.43742999       0.03334749
C        2.50540461       2.18721006       1.25881101
C        1.68862162       3.24379527       1.22083404
C        4.44732501       1.40703307      -0.01957365
C        5.66026402       1.34770734      -0.05011114
H        2.37400648      -1.60940020      -1.27224309
H        3.79704033      -0.79194963      -1.27959949
H        2.74383086      -0.52489405       0.92470850
H        1.31407463       0.07621693       0.04686943
H        2.61553865       1.95033883      -0.87265372
H        2.86569965       1.80491092       2.21952469
H        1.32564895       3.65223149       0.27430245
H        1.35803404       3.73851563       2.13505077
H        6.73036199       1.31960217      -0.07991327
