14
Properties=species:S:1:pos:R:3 -1455.2888312180062=T 10.74155=T 10.94763=T -9.1202=T -7.109=T -9.568=T 0.959=T -0.5076=T 0.399=T 8.98004=T 0.2486=T 5.0607117648=T 6.4421141824=T 0.388623532=T pbc="F F F"
C        0.87949857       0.03937621       0.40214126
C        2.14989989      -0.02310696      -0.01350648
C        2.99563435       1.17952318      -0.29115767
O        4.20638049       1.18215057       0.52221975
N        4.96239784       0.00353757       0.50250870
C        4.38194962      -1.08362871       0.12882257
C        2.93180318      -1.28926231      -0.22525466
H        0.37785837       0.99895762       0.54121775
H        0.29849860      -0.86117908       0.61059907
H        2.49462141       2.12320401      -0.04241425
H        3.31143985       1.19771812      -1.35176949
H        5.04948749      -1.95051785       0.13766595
H        2.86555306      -1.61572950      -1.28032041
H        2.52822728      -2.11846287       0.37682790
