16
Properties=species:S:1:pos:R:3 -1613.9620657902021=T 11.120247=T 12.22347=T -10.025=T -7.6141=T -9.808=T 0.9213=T -0.0059=T 2.337=T 9.3879=T -1.96164=T 4.3550206486=T 10.4740397136=T 0.544818118=T pbc="F F F"
C        0.92019787       0.03731521       0.08263599
C        2.44448080      -0.04140964      -0.04564920
C        2.86173477      -0.82267255      -1.29448260
C        3.04632799       1.38672664      -0.04219592
C        4.50318977       1.42184906      -0.02524272
C        5.71755380       1.43053212      -0.00779096
H        0.61620472       0.56973253       0.99627553
H        0.47700146      -0.96842115       0.11549833
H        0.48044292       0.56619100      -0.77846861
H        2.84443110      -0.56374557       0.84088676
H        2.46875400      -0.34094503      -2.20475011
H        2.46909559      -1.84942210      -1.26350954
H        3.95557864      -0.87616262      -1.38491561
H        2.66600456       1.93832682       0.83456908
H        2.68055033       1.93199635      -0.93128450
H        6.78802169       1.44537892       0.00924409
