16
Properties=species:S:1:pos:R:3 -1609.9108714010838=T 11.038829=T 11.71508=T -8.3266=T -6.1647=T -8.606=T 0.8291=T -0.1056=T 1.357=T 8.12542=T -0.74763=T 5.6228518902=T 0.208424133=T pbc="F F F"
C        0.98719483       0.10525305      -0.25350345
O        2.40023327       0.04365867      -0.02188941
C        3.08009861       1.22648228      -0.11470283
C        4.39939407       1.33245108      -0.34667695
C        4.82584140       2.76663689      -0.17457197
N        3.55930229       3.54978956      -0.08678877
C        2.48217392       2.58442320       0.21657846
H        0.61700039      -0.91856635      -0.12677713
H        0.76417661       0.44550283      -1.27812572
H        0.48070204       0.76180533       0.47151215
H        5.07603008       0.49885233      -0.52584796
H        5.41511311       2.90102836       0.75397602
H        5.45054115       3.14763413      -0.99867478
H        3.37438155       3.93254569      -1.01533105
H        1.57117602       2.82734886      -0.35185041
H        2.20897067       2.62261408       1.29027380
