19
Properties=species:S:1:pos:R:3 -1872.320185872787=T 11.676204=T 13.15175=T -10.2524=T -7.8152=T -11.713=T 0.9312=T -0.0588=T 3.043=T 11.48066=T -2.77658=T 9.884969829=T 10.4219903908=T 0.10610291=T pbc="F F F"
O        2.56909986       1.77483744      -2.11325388
C        2.27236819       2.20013337      -0.77210472
C        2.94739480       1.23931253       0.19812938
C        4.46852660       1.26615674       0.13049042
C        5.23490040       2.52400466       0.63697707
C        6.31916589       1.57556226       1.21662936
C        5.28406653       0.42068511       1.14903310
H        2.16009905       2.40738229      -2.72638858
H        1.18006863       2.20009662      -0.59741220
H        2.64230590       3.22949560      -0.60004417
H        2.58092848       0.21881649      -0.00772219
H        2.61893510       1.49719880       1.22062298
H        4.79192059       1.02729518      -0.89480676
H        4.67624365       3.03097890       1.44062377
H        5.54768295       3.27348960      -0.10338061
H        7.14145702       1.42181825       0.50265870
H        6.74776532       1.82461244       2.19721302
H        5.63342350      -0.57220758       0.83216024
H        4.73948755       0.31568131       2.10125505
