20
Properties=species:S:1:pos:R:3 -1881.2014154357078=T 12.013793=T 13.43624=T -9.1193=T -6.8237=T -10.512=T 0.9626=T 0.0562=T 3.06=T 9.87721=T -2.77333=T 8.7177904222=T 10.9116235034=T 0.104437522=T pbc="F F F"
C        2.06390717       0.81446496       0.18743520
O        3.26103006       1.57434745       0.15776529
C        4.11723793       1.17301488      -0.91053125
C        5.38903120       2.01809989      -0.90905147
C        6.40856179       1.44846460      -1.90058703
C        5.07483500       3.49523541      -1.19759555
N        6.26742643       4.33781215      -0.98986831
H        1.46806774       1.17804252       1.03452317
H        2.26991793      -0.26431765       0.32831148
H        1.47888836       0.93798335      -0.74436188
H        3.58735287       1.28167784      -1.88207786
H        4.37775369       0.10026766      -0.79901548
H        5.81192551       1.95658986       0.11121801
H        5.97846510       1.38763782      -2.91379817
H        6.73447484       0.43872362      -1.61071787
H        7.28870706       2.10231173      -1.94874203
H        4.20351084       3.79608321      -0.58785335
H        4.77934441       3.58986806      -2.25745685
H        6.45407716       4.41478155       0.01411373
H        6.07540491       5.28939109      -1.31038977
