10
Properties=species:S:1:pos:R:3 -1101.6372919807384=T 8.533747=T 8.8818=T -9.1896=T -7.2123=T -9.605=T 0.8036=T -0.9669=T -0.454=T 9.10659=T 0.94716=T 4.8226710434=T 10.7294260764=T 0.345718588=T pbc="F F F"
C        2.04618912      -0.03979972       0.55172830
O        1.40410822       0.46398301      -0.72186951
C        2.11716339       1.65566866      -0.52997894
C        2.52737689       2.91770107      -0.82229188
O        3.40638215       3.27745242       0.18829213
N        3.55767416       2.21625324       1.14643569
C        2.76536444       1.29768730       0.64994470
H        2.66631939      -0.91853531       0.33870428
H        1.27714905      -0.24242227       1.30657472
H        2.36152320       3.66969162      -1.58413949
