20
Properties=species:S:1:pos:R:3 -1938.446164680446=T 12.374738=T 13.88106=T -9.182=T -6.8967=T -10.57=T 0.9275=T -0.0017=T 3.027=T 9.93352=T -2.67467=T 8.677718147=T 10.8240025972=T 0.212497641=T pbc="F F F"
C        2.07869246      -0.02942702       0.67383753
C        2.80447369      -0.17263792      -0.66903645
C        1.98236533      -0.99335947      -1.67883941
N        1.75842304      -2.36864640      -1.20212542
C        3.16402717       1.18287561      -1.25339702
C        4.40817560       1.90755065      -0.79840588
C        4.33406617       1.33492845      -2.19717739
H        2.72115714       0.45721540       1.42127938
H        1.76938753      -1.01236184       1.05210348
H        1.17365309       0.58827269       0.55649696
H        3.75340354      -0.71980519      -0.49638990
H        2.48467149      -0.93643313      -2.66515302
H        0.99354697      -0.51725163      -1.79869639
H        2.63476058      -2.89626937      -1.25109404
H        1.10402676      -2.85085871      -1.82177534
H        2.29878317       1.82124162      -1.46427251
H        5.05078235       1.39855987      -0.07741192
H        4.36856187       2.99095805      -0.68127677
H        4.24367676       2.02777161      -3.03464689
H        4.92987530       0.44491672      -2.41072899
