19
Properties=species:S:1:pos:R:3 -1877.340720762605=T 12.559698=T 13.6939=T -9.1231=T -7.0062=T -8.924=T 0.8485=T -0.0702=T 1.305=T 8.34708=T -0.62777=T 6.0745204896=T 0.391054112=T pbc="F F F"
C        2.01827798      -0.66386538       1.23678266
C        2.79062147      -0.28769198      -0.03811299
C        3.28094823       1.13081395      -0.01509699
C        4.54907437       1.58131217      -0.09498677
C        5.77740874       0.72071894      -0.22881268
C        4.81049780       3.06815215      -0.04291798
O        5.57091020       3.46177196       1.11648517
H        1.62141392      -1.68717350       1.17240398
H        1.16879704       0.01615638       1.40097779
H        2.66829455      -0.60432405       2.12185317
H        2.11996528      -0.41425745      -0.90697350
H        3.62302277      -0.99016669      -0.19052242
H        2.48991132       1.88689692       0.08237524
H        5.57940401      -0.34409217      -0.05807463
H        6.54763783       1.05085695       0.48381858
H        6.21415276       0.82746424      -1.23625652
H        3.85584664       3.62210918      -0.09514688
H        5.42989939       3.38321047      -0.89864486
H        5.06068570       3.17362787       1.89513963
