20
Properties=species:S:1:pos:R:3 -1944.3685424748842=T 13.282667=T 14.39188=T -8.8482=T -6.7324=T -8.694=T 0.9349=T -0.0452=T 1.521=T 8.10976=T -0.82218=T 6.0612539876=T 0.391820985=T pbc="F F F"
C        2.08684712      -0.66836494       1.46903335
C        2.72495151      -0.26505302       0.12989858
C        3.26674649       1.13527309       0.15329097
C        4.53659273       1.54539931      -0.03156575
C        5.70955660       0.64503169      -0.31463077
C        4.86218948       3.02312458       0.03809653
N        5.78464150       3.30673217       1.15531685
H        1.64120626      -1.67208451       1.41255750
H        1.29167681       0.03616813       1.75632271
H        2.83575046      -0.66998621       2.27444733
H        1.95742387      -0.33519404      -0.66203228
H        3.50903641      -0.98742896      -0.14157438
H        2.51677796       1.91153711       0.35637565
H        5.49597104      -0.41384623      -0.12555821
H        6.56542153       0.94961187       0.30449869
H        6.02563754       0.74328181      -1.36736040
H        3.91563602       3.59688684       0.07595498
H        5.38274600       3.32159084      -0.88942860
H        5.29063209       3.17047548       2.04139405
H        6.07260859       4.28739498       1.12952318
