18
Properties=species:S:1:pos:R:3 -1785.0663448097832=T 12.392153=T 13.47359=T -9.2109=T -6.9775=T -9.664=T 0.8816=T -0.0221=T 2.407=T 9.2423=T -1.94659=T 4.3172669116=T 10.6048821394=T 0.376177604=T pbc="F F F"
C        0.95543862       0.01383511      -0.02725574
C        2.49889966      -0.02468597       0.01062083
C        2.98257309      -0.76067977       1.27942265
C        3.01163280      -0.75082133      -1.26625836
N        4.47502046      -0.79511682      -1.31795672
C        3.01815375       1.35028129       0.00749704
C        3.45468448       2.48425956      -0.01491089
H        0.59378909       0.54081023      -0.92117346
H        0.55990327       0.52912729       0.85829725
H        0.55619522      -1.01154999      -0.03836907
H        2.67427443      -0.21828270       2.18328910
H        4.07481472      -0.85752552       1.27044271
H        2.54359979      -1.76943057       1.30991928
H        2.53884453      -0.26090001      -2.14139745
H        2.63701112      -1.78721094      -1.22806695
H        4.83635350       0.15430052      -1.45020165
H        4.77824614      -1.34036099      -2.12669353
H        3.83513533       3.48525062      -0.01732504
