20
Properties=species:S:1:pos:R:3 -1881.3698328021248=T 11.932831=T 13.31779=T -9.1777=T -6.8349=T -10.558=T 0.9553=T 0.0292=T 3.052=T 10.7912=T -2.74377=T 8.8038986992=T 11.831550029=T 0.082330174=T pbc="F F F"
C        1.89224059      -0.11411859       1.80099467
O        3.02962435       0.73412907       1.77801317
C        2.99333516       1.72889282       0.73681058
C        1.95996318       2.82375428       1.01762235
C        4.42108689       2.25879382       0.57575097
C        4.99190771       2.99456899       1.78967133
N        6.36981597       3.43160576       1.49787888
H        2.09948665      -0.90406979       2.53500611
H        1.71689972      -0.58251499       0.81281450
H        0.97119278       0.41418126       2.10733644
H        2.71520808       1.22161162      -0.21094631
H        2.14371021       3.29947631       1.99105968
H        0.93743007       2.42206827       1.02158343
H        2.00616519       3.59773555       0.23766738
H        4.45877098       2.92946588      -0.29746344
H        5.06972417       1.39670499       0.34436813
H        4.90236416       2.34396002       2.68004492
H        4.39882269       3.90134284       1.98994370
H        6.96878107       2.60803077       1.38627320
H        6.74502038       3.94189111       2.30096030
