17
Properties=species:S:1:pos:R:3 -1798.9124868589524=T 12.320032=T 12.86357=T -9.1578=T -6.9867=T -8.949=T 1.0457=T 0.018=T 1.346=T 8.90295=T -0.75374=T 6.089634383=T 6.6647682412=T 0.386759024=T pbc="F F F"
C        0.81227402       0.54336749       0.00411509
C        2.09832474       0.19054784       0.11577235
C        3.29530417       1.11269817       0.02625803
C        3.98753049       1.33530005       1.41261484
C        3.52928103       2.73721570       1.88618898
C        3.07787034       3.40056117       0.60829449
C        2.96101710       2.52553060      -0.39978706
H        0.01486151      -0.19489866       0.10016406
H        0.51681773       1.57873791      -0.18058928
H        2.34386077      -0.86094895       0.30785828
H        4.01170082       0.64531354      -0.67366888
H        5.07859175       1.33542114       1.27401872
H        3.74277509       0.54078074       2.13085955
H        4.33895169       3.28892762       2.38940388
H        2.69536825       2.68251716       2.60843148
H        2.84759300       4.46559721       0.54105278
H        2.61871751       2.76817126      -1.40716732
