21
Properties=species:S:1:pos:R:3 -2016.9732218025429=T 12.335399=T 14.02026=T -10.0278=T -7.7271=T -11.88=T 0.9009=T -0.0414=T 2.825=T 11.48977=T -2.5372=T 9.7707043314=T 10.8712412632=T 0.186372177=T pbc="F F F"
C        0.88614556       1.95071263       1.06307041
C        2.41085649       2.05729139       1.14078560
C        3.10639608       1.53010096      -0.12041270
C        4.64632755       1.50331576      -0.07668462
C        5.21848942       0.68762525      -1.24116897
C        5.23618072       2.92139929      -0.06484361
O        6.66468575       2.95216220       0.06930696
H        0.40859964       2.33091403       1.97753304
H        0.56711441       0.90565628       0.92841499
H        0.48960554       2.52912662       0.21449888
H        2.77450635       1.49018497       2.01562617
H        2.68882572       3.10851843       1.32061185
H        2.78119771       2.12214387      -0.99650333
H        2.75196959       0.50150739      -0.30961019
H        4.94576789       1.01384669       0.87219668
H        4.87546708       1.09685909      -2.20546480
H        4.89372790      -0.36182366      -1.18793231
H        6.31643636       0.71344233      -1.23871174
H        4.76522980       3.53059325       0.72678216
H        5.02666081       3.41426498      -1.02875985
H        6.88230966       2.61436824       0.95593538
