15
Properties=species:S:1:pos:R:3 -1543.911082699018=T 10.138281=T 10.94603=T -9.7804=T -7.6053=T -9.849=T 1.497=T -0.169=T 1.22=T 9.31652=T -0.67011=T 6.8255036916=T 0.433755575=T pbc="F F F"
C        1.08108131       0.50833854       0.74535445
C        2.35629814       0.29089003       0.41313438
C        3.27697589       1.31994413      -0.19883562
O        2.63997888       2.59406035      -0.34322584
C        3.30027134       3.51642365       0.54393944
C        4.09115007       2.60838781       1.47969880
O        4.44228658       1.51822071       0.61426340
H        0.46993108      -0.27696927       1.19175558
H        0.61774189       1.47997690       0.56646770
H        2.82257159      -0.68671806       0.57025112
H        3.64249212       0.97978157      -1.18522788
H        3.96492323       4.17801196      -0.03785088
H        2.53845968       4.11965679       1.05911888
H        5.02151663       3.05141316       1.85583849
H        3.47191157       2.25934173       2.32553798
