15
Properties=species:S:1:pos:R:3 -1508.0851790356578=T 10.437841=T 11.21474=T -8.6655=T -6.6662=T -9.546=T 0.7065=T -0.2506=T 1.029=T 8.90798=T -0.42647=T 4.9566875108=T 8.7197246038=T 0.202271675=T pbc="F F F"
C        1.14686809      -0.00779975       0.25982150
N        2.55615787       0.05980832      -0.08878131
C        3.04468061       1.21921362      -0.27159457
N        2.43572151       2.48301492      -0.24559056
C        3.47740505       3.50540990      -0.15255440
C        4.61368224       2.77048791      -0.86891329
O        4.37986486       1.37656179      -0.57906290
H        0.85141704      -1.05986503       0.36994417
H        0.49482152       0.44244620      -0.51278423
H        0.91769558       0.49200889       1.22330578
H        1.62715771       2.56260318       0.36682225
H        3.19005962       4.43197025      -0.66872733
H        3.74699019       3.74181334       0.89263542
H        4.56469191       2.92284539      -1.96013470
H        5.61285622       3.03446106      -0.50215584
