16
Properties=species:S:1:pos:R:3 -1548.4809896729853=T 10.126787=T 11.30133=T -9.2531=T -6.9943=T -10.669=T 0.9037=T -0.1072=T 2.644=T 10.0328=T -2.39345=T 8.4680454224=T 13.484593374=T 0.075247575=T pbc="F F F"
N        2.40572331      -0.59495063      -1.38872601
C        2.41613947      -0.01045789      -0.04260025
C        3.27504358       1.23671522       0.02151686
O        2.67758543       2.42657920      -0.58633303
C        3.09070449       3.24217106       0.54450699
C        3.40708562       1.98043043       1.37137789
O        4.60226785       1.89301504       2.12079774
H        1.70231841      -1.33386992      -1.44590106
H        3.30663880      -1.03787989      -1.58693569
H        2.78183625      -0.69026796       0.75732544
H        1.38432653       0.27415033       0.21767066
H        4.27279001       1.03849066      -0.42665410
H        3.99525511       3.83887693       0.31405181
H        2.28895705       3.91138544       0.89161740
H        2.59731309       1.71702397       2.06738043
H        5.34054499       2.14918800       1.53769492
