13
Properties=species:S:1:pos:R:3 -1451.106643757532=T 10.68338=T 10.78529=T -9.3844=T -7.3842=T -9.324=T 0.1917=T -1.3526=T -0.102=T 9.57538=T 0.77032=T 4.1464390008=T 6.7227440948=T 0.403629371=T pbc="F F F"
C        0.97001100      -0.00869905       0.00385774
C        2.47332196       0.00907143       0.00304956
C        3.21095902       1.20230587       0.00351381
N        4.55108866       1.24059694       0.00338113
C        5.16654502       0.04696390       0.00254761
N        4.58601300      -1.16126464       0.00164881
C        3.24331262      -1.16036489       0.00180700
H        0.58483342      -1.03676967      -0.01137831
H        0.56524126       0.51716526      -0.87324786
H        0.56685737       0.48971810       0.89771695
H        2.69725141       2.17096307       0.00361580
H        6.26074517       0.06334679       0.00277691
H        2.75560007      -2.14233311       0.00050087
