15
Properties=species:S:1:pos:R:3 -1455.9580626755453=T 13.642118=T 13.98626=T -7.7831=T -6.0532=T -8.627=T 0.7932=T -0.6503=T -0.049=T 7.73296=T 0.84833=T 3.1422143938=T 10.874564088=T 0.338371183=T pbc="F F F"
C        2.84891537      -1.06037533       0.13762374
N        2.52326444       0.24946886      -0.40529890
C        3.11542007       1.42315587      -0.05904089
S        2.58060081       2.90388936      -0.64052677
N        4.15882680       1.26317113       0.86649725
C        5.50044445       0.84140717       0.41141237
C        5.24451969       2.22433507       0.92399870
H        2.00294871      -1.73407404      -0.04100347
H        3.02581681      -0.98646761       1.21919397
H        3.74574436      -1.49740467      -0.33198985
H        1.74289200       0.34763525      -1.04757091
H        5.64136560       0.73418120      -0.66739498
H        6.00098711       0.09796145       1.03628746
H        5.56655622       2.48961275       1.93261124
H        5.19751758       3.04050352       0.19805104
