15
Properties=species:S:1:pos:R:3 -1573.932964550813=T 11.135726=T 11.84411=T -8.9734=T -7.0681=T -9.154=T 0.8681=T 0.0125=T 0.541=T 8.46806=T -0.00870999999999=T 5.0807107066=T 11.2664094424=T 0.268396467=T pbc="F F F"
C        2.30040816      -0.56912390      -1.39342100
C        2.38407861       0.04753518       0.01168981
C        3.01653653       1.40774796       0.02449992
N        2.26185272       2.50736651       0.19374715
N        3.14144658       3.53590048       0.12342388
C        4.42569296       3.13236288      -0.08299086
C        4.38400911       1.74989290      -0.15420266
H        1.83388368      -1.56418708      -1.35737064
H        3.29875172      -0.67939236      -1.84164505
H        1.70165688       0.06630371      -2.06154623
H        2.95356169      -0.62423417       0.67467929
H        1.37558758       0.14066577       0.44075404
H        2.79806797       4.48428645       0.23022728
H        5.24597231       3.83980273      -0.15509145
H        5.22541351       1.08140293      -0.30807350
