13
Properties=species:S:1:pos:R:3 -1400.2742064444928=T 10.793106=T 11.6028=T -10.0655=T -7.9281=T -9.963=T 0.0451=T -1.6651=T -0.208=T 9.43454=T 0.6984=T 5.0393985714=T 6.518006013=T 0.215198381=T pbc="F F F"
C        1.88800931      -0.61909480      -1.23643517
C        2.18234682       0.06975216      -0.11929013
C        1.50630604      -0.21829008       1.11234939
N        0.99591899      -0.43284468       2.14241438
C        3.22492852       1.14664080      -0.03896948
C        3.54059734       2.04143184      -1.18252808
N        2.72309340       2.53771959      -0.05592295
H        2.41630469      -0.41443832      -2.16743133
H        1.12225590      -1.39375572      -1.24110215
H        4.04342676       0.91690169       0.65174210
H        2.99228936       1.93942782      -2.12128046
H        4.57446659       2.38022414      -1.28459651
H        3.29050629       3.11560556       0.57209038
