17
Properties=species:S:1:pos:R:3 -1787.768405513023=T 14.191964=T 14.32036=T -8.3827=T -6.4463=T -8.287=T 0.3851=T -1.1207=T 0.162=T 7.7072=T 0.4514=T 4.8543742636=T 0.409964401=T pbc="F F F"
C        0.88892590       0.58331474      -0.04312895
C        2.34770870       0.37884671      -0.30435498
C        3.33339017       1.14072463       0.20043739
C        4.77631309       0.92474926      -0.02491938
C        5.32317583      -0.31531325      -0.01075854
C        5.64022992       2.09206244      -0.24457513
C        5.22964821       3.36388884      -0.39662287
H        0.33279058       0.73092819      -0.98273862
H        0.70924723       1.45225910       0.60507616
H        0.44691126      -0.30234702       0.44226647
H        2.61601186      -0.45099657      -0.96834235
H        3.06262263       2.00393350       0.81977741
H        4.72323092      -1.20100335       0.19920974
H        6.38810379      -0.45963246      -0.20150036
H        6.71253189       1.87538292      -0.29186782
H        4.17400555       3.63962338      -0.37691047
H        5.94742249       4.16847895      -0.55711770
