14
Properties=species:S:1:pos:R:3 -1482.6549005681177=T 10.323812=T 11.72725=T -10.7367=T -8.3844=T -11.095=T 0.7124=T -0.3737=T 1.377=T 10.66418=T -0.98864=T 5.2848908514=T 10.8540072092=T 0.329944071=T pbc="F F F"
O        2.90282925      -0.96382903      -0.72344887
C        2.36072217       0.08510631       0.08819822
C        3.33268381       1.23521306       0.06729068
C        3.33869521       2.20393832      -1.07686914
C        2.78426899       2.64398405       0.27262268
C        3.51672545       3.57798322       1.07947230
N        4.11519363       4.33820723       1.73467447
H        2.36509578      -1.76143874      -0.58376773
H        2.21188458      -0.25496974       1.12930202
H        1.37990689       0.42237942      -0.30177488
H        4.29815856       1.03403363       0.53524538
H        2.60908642       2.06302072      -1.87453454
H        4.29224268       2.63039799      -1.38425522
H        1.69946656       2.74489354       0.34945463
