15
Properties=species:S:1:pos:R:3 -1541.0814186435007=T 12.909601=T 12.38923=T -8.2267=T -6.428=T -8.53=T 0.9834=T -0.624=T 0.514=T 7.73006=T 0.05964=T 4.875005534=T 5.2241873058=T 0.335962665=T pbc="F F F"
C        2.39980982      -0.97928311       0.82229937
C        2.07423410       0.20323886       0.27785341
N        2.95165392       1.29408623       0.11819329
C        2.44796864       2.60462464       0.12176955
C        1.27945296       2.98983704       0.65994801
C        4.32999955       1.06918989      -0.06979391
N        5.30043450       1.89473918       0.05572077
H        1.67275043      -1.78879457       0.81808094
H        3.37088280      -1.17105699       1.27790194
H        1.07320931       0.39534351      -0.11630434
H        3.08748194       3.31477522      -0.40697132
H        0.64298636       2.31288084       1.22868994
H        0.94594776       4.01783399       0.53379352
H        4.53348748       0.04112448      -0.39343628
H        4.98667045       2.80332077       0.42515509
