17
Properties=species:S:1:pos:R:3 -1686.1373139728732=T 11.302398=T 11.87827=T -8.2269=T -6.2319=T -9.004=T 0.8406=T -0.1193=T 0.756=T 8.52172=T -0.14066=T 5.131098617=T 5.2453021216=T 0.154905405=T pbc="F F F"
C        1.00025955       0.06286876      -0.05919687
C        2.53118130      -0.03638817       0.04244925
C        2.99260690      -0.02442787       1.49964216
C        3.06007145      -1.24886815      -0.76979652
C        3.36364641      -0.59714004      -2.09440283
N        3.40134779       0.69341288      -2.03723166
N        3.17856074       1.08312802      -0.71970468
H        0.68018093       0.06658216      -1.11123437
H        0.63693211       0.98480807       0.42032374
H        0.51763380      -0.78823516       0.44498356
H        4.08833450      -0.07052776       1.55604458
H        2.57289480      -0.87996678       2.04900241
H        2.66248750       0.89316759       2.00954497
H        2.33106907      -2.07008236      -0.83366538
H        3.98257215      -1.65911324      -0.31997009
H        3.60049889      -1.10942635      -3.02645044
H        2.66581212       1.96699839      -0.70290782
