11
Properties=species:S:1:pos:R:3 -1253.2254008345312=T 10.589468=T 10.73276=T -10.1508=T -8.2243=T -10.531=T -0.9231=T -2.6986=T -1.413=T 10.07179=T 1.73998=T 3.9601996302=T 5.0521939266=T 0.400073901=T pbc="F F F"
N        1.28519046      -0.16654478      -0.84957469
C        2.53114303      -0.14156511      -0.27901415
O        3.04812750      -1.12697666       0.24444341
C        3.21202504       1.19039439      -0.34683618
C        4.44184023       1.32660712       0.18346600
C        5.16788076       2.54537106       0.16896966
N        5.78821075       3.53782044       0.17064228
H        0.86506682       0.64870819      -1.28039332
H        0.76853363      -1.04017088      -0.83848490
H        2.71138736       2.03708915      -0.82238740
H        4.91034442       0.45486708       0.65131928
