17
Properties=species:S:1:pos:R:3 -1664.5857181667404=T 13.113928=T 13.68306=T -8.5893=T -6.5788=T -9.242=T 1.3527=T -0.1374=T 0.758=T 8.81965=T -0.15802=T 4.93960224=T 6.6734596598=T 0.425977442=T pbc="F F F"
N        0.59096114       1.11601941      -1.11587239
N        1.95811732       0.96759144      -1.20304274
C        2.65996089       1.17544505      -0.14677915
C        4.15591451       1.13771819      -0.19294671
C        4.79752735       2.51676261       0.09394465
C        6.29643491       2.47502904       0.04407306
C        7.11161451       2.76539364       1.06451759
H        0.13402620       0.52618076      -1.80857056
H        0.19762622       0.96933268      -0.17720361
H        2.17852672       1.41465577       0.82201234
H        4.46306103       0.77667610      -1.18604181
H        4.53309533       0.41658966       0.55303171
H        4.46793052       2.88733842       1.07866626
H        4.42155926       3.23009277      -0.65986292
H        6.73419586       2.16815143      -0.91374529
H        6.71863132       3.07402866       2.03712502
H        8.19662691       2.71069435       0.96343456
