13
Properties=species:S:1:pos:R:3 -1397.8735954031386=T 10.158048=T 10.24044=T -7.9521=T -6.037=T -7.973=T 0.8734=T 0.0004=T 1.117=T 7.48818=T -0.54689=T 4.8373509858=T 12.2868142224=T 0.480409795=T pbc="F F F"
C        0.97669336       0.01220803      -0.00846606
N        2.42980945      -0.00396704       0.00079184
C        3.24622846       1.10824559       0.00426299
C        4.56286273       0.67913928       0.01019303
C        4.54258363      -0.74395621       0.00999032
C        3.21462297      -1.13823161       0.00399610
H        0.63127729       1.05210912       0.00231523
H        0.57393130      -0.49830338       0.87822529
H        0.58446656      -0.47664246      -0.91205635
H        2.81950553       2.10645667       0.00245582
H        5.43877405       1.32091198       0.01462180
H        5.40065667      -1.40967929       0.01416892
H        2.76284798      -2.12542069       0.00188105
