14
Properties=species:S:1:pos:R:3 -1497.3696740358077=T 10.86024=T 11.20996=T -7.5396=T -5.6045=T -7.938=T 0.8616=T -0.019=T 0.959=T 7.41894=T -0.39461=T 4.7019954696=T 6.1106996044=T 0.393381521=T pbc="F F F"
C        3.04460306      -1.16482979       0.51408193
O        2.30896734       0.03724660       0.30018306
C        3.07225639       1.17038261       0.17913953
C        2.51672535       2.42537354      -0.03230284
N        3.57001203       3.31848133      -0.10271999
C        4.76385457       2.66330337       0.05756135
C        4.49057398       1.31368337       0.23686324
H        2.30189361      -1.96767174       0.58879343
H        3.62792447      -1.11890549       1.44982167
H        3.72605603      -1.37520131      -0.32815491
H        1.48356794       2.73425584      -0.13381220
H        3.46858556       4.31471505      -0.25177994
H        5.70874613       3.19473549       0.03311814
H        5.23066352       0.53562112       0.38970756
