15
Properties=species:S:1:pos:R:3 -1549.7124140158262=T 10.821643=T 11.44267=T -9.5939=T -7.6136=T -9.571=T 0.3634=T -1.3018=T 0.294=T 9.17711=T 0.31358=T 4.9092628658=T 8.8724505586=T 0.188087854=T pbc="F F F"
C        0.86193576       0.07303767       0.09600519
C        2.39978197       0.03750696       0.08702871
C        3.06429275       1.11890177      -0.70870809
N        3.86139861       0.66591941      -1.61839104
N        3.83885653      -0.78284409      -1.55605501
C        3.02622376      -1.14511711      -0.61133851
C        2.77681073      -2.57736648      -0.28085221
H        0.49643033       0.99387996       0.56975842
H        0.45476348      -0.77919747       0.65702401
H        0.46826804       0.03365945      -0.92869175
H        2.76711711       0.07588000       1.13098196
H        2.92277090       2.19309249      -0.56990076
H        3.34736372      -3.21987921      -0.96124788
H        1.70728334      -2.82466709      -0.36859976
H        3.07391296      -2.80243627       0.75518670
