14
Properties=species:S:1:pos:R:3 -1451.9145818982367=T 9.36237=T 10.27147=T -9.2464=T -7.1505=T -10.511=T 1.0748=T -0.7498=T 0.327=T 9.65881=T 0.43005=T 3.7563914434=T 13.3811022598=T 0.134415354=T pbc="F F F"
C        0.93340302      -0.01392070       0.09039430
C        2.45173133       0.02320904       0.01075585
C        3.19603214       1.09651577       0.87076578
C        4.12257579      -0.02112254       1.36989153
O        5.18145405      -0.03430578       1.95566494
C        3.24098050      -1.11020588       0.74349896
H        0.52733483      -0.89059859      -0.43567102
H        0.48638893       0.88362752      -0.36222987
H        0.59523030      -0.06506882       1.13759150
H        2.77703045       0.09014196      -1.03850625
H        2.57658337       1.49398178       1.69186360
H        3.68368075       1.93945401       0.36161768
H        3.76176481      -1.86749296       0.14114999
H        2.64035974      -1.62544481       1.51123300
