13
Properties=species:S:1:pos:R:3 -1419.568326315794=T 10.392829=T 11.1308=T -9.2829=T -7.1156=T -9.305=T 1.1117=T -0.4272=T 0.792=T 8.92702=T -0.2297=T 5.3855674834=T 11.615566417=T 0.286588276=T pbc="F F F"
N        1.03648068       0.11529060      -0.57610328
C        2.16194428       0.06096856      -0.27506004
C        3.60094453       0.01477138       0.06679593
N        3.94378948      -1.19489351       0.83664210
C        4.80887306      -0.82165150       1.97494810
C        4.69155707       0.67279198       2.03170238
C        4.01681040       1.14992876       0.98325484
H        4.14334207       0.09157717      -0.90030301
H        4.35018776      -1.91759876       0.24738897
H        5.86488300      -1.12682911       1.83447500
H        4.45960270      -1.29707845       2.90904483
H        5.11624219       1.27022428       2.83766319
H        3.77971277       2.18925862       0.76526098
