15
Properties=species:S:1:pos:R:3 -1519.6679710453382=T 11.844267=T 11.59303=T -8.1284=T -6.3332=T -8.939=T 0.8186=T -0.7439=T -0.423=T 8.71963=T 1.10629=T 3.5834557706=T 4.455932854=T 0.419502199=T pbc="F F F"
C        3.26766574      -1.44865742       0.44407801
C        2.58375240      -0.09030204       0.27399999
O        1.34602183      -0.04122944       0.32975460
C        3.35330194       1.12004794       0.04906441
C        4.71307003       1.32392928      -0.02232823
N        5.71145866       0.42355882       0.31291399
N        5.23400901       2.54215933      -0.45349336
H        3.81779105      -1.49984354       1.39782394
H        3.96121509      -1.66902774      -0.38273599
H        2.48872491      -2.21922812       0.46273409
H        2.72466228       2.00286482      -0.08448920
H        5.40556242      -0.52687450       0.49352716
H        6.53793620       0.46903147      -0.28023001
H        4.53336878       3.26810054      -0.58009368
H        6.03740967       2.87193059       0.08047427
