8
Properties=species:S:1:pos:R:3 -847.3179688263709=T 6.510548=T 6.29995=T -9.8341=T -7.6508=T -10.756=T -0.0871=T -2.0701=T -0.988=T 9.84059=T 1.46575=T 3.3931496592=T 5.7645678882=T 0.579990064=T pbc="F F F"
C        0.98104227      -0.02132361       0.02314864
C        2.32254705      -0.00473977      -0.02870622
C        3.06096798       1.26939400      -0.01393100
O        4.27884408       1.36341217      -0.05784740
H        0.40883473      -0.94927164       0.01440824
H        0.41447129       0.91245063       0.07777618
H        2.91893969      -0.91896302      -0.08319224
H        2.41110292       2.18211124       0.04268380
