17
Properties=species:S:1:pos:R:3 -1743.7669450361682=T 11.841005=T 12.68838=T -9.3742=T -7.2386=T -9.559=T 0.6965=T -1.1604=T -0.237=T 8.92645=T 0.83916=T 3.6669107472=T 5.6259639388=T 0.20452222=T pbc="F F F"
C        2.32182668      -0.41744118      -1.48610541
C        2.54218900       0.07458417      -0.04605931
C        2.91671062       1.53667801       0.03844961
C        2.07640341       2.46976020       0.51429009
C        4.32666149       1.89819706      -0.39376850
C        5.28768548       1.57223314       0.73813678
O        6.11605715       0.68227751       0.71358794
H        2.05615331      -1.48368173      -1.49187128
H        3.22514725      -0.30076596      -2.10148343
H        1.50804382       0.14101533      -1.97020297
H        3.33690774      -0.53249732       0.42115507
H        1.62693181      -0.09325692       0.54188035
H        1.07791845       2.20316932       0.86671468
H        2.35195372       3.52543017       0.55562806
H        4.39080228       2.97995888      -0.59157560
H        4.64172595       1.34431087      -1.28912858
H        5.15427184       2.21216844       1.64879250
