17
Properties=species:S:1:pos:R:3 -1754.8053309662846=T 11.357894=T 12.08834=T -9.3883=T -7.1789=T -9.235=T 0.9538=T -0.1861=T 1.366=T 8.6723=T -0.72711=T 6.356886206=T 0.365989546=T pbc="F F F"
O        0.90462969       0.13625905      -0.29588140
C        2.29532023       0.01689373       0.09562821
C        3.11322247       1.26393315      -0.27397662
C        3.44146694       1.28850463      -1.76851449
C        4.28958159       0.06856604      -2.14364264
C        3.74290745      -1.19939191      -1.54788075
C        2.83201331      -1.22566818      -0.56367537
H        0.49504235       0.79627497       0.29114964
H        2.34294796      -0.12877745       1.19311285
H        2.55486483       2.16590467       0.02499696
H        4.04719311       1.25775899       0.31582136
H        3.96313016       2.21850100      -2.03990555
H        2.49765988       1.26425491      -2.33717813
H        5.33461578       0.20820024      -1.80542118
H        4.34995127      -0.03850747      -3.23940331
H        4.11542803      -2.14448048      -1.95501588
H        2.43859495      -2.17792588      -0.19961370
