11
Properties=species:S:1:pos:R:3 -1081.031800459606=T 10.199441=T 11.5553=T -10.8087=T -8.7611=T -10.481=T 0.3654=T -1.4124=T -0.887=T 10.09345=T 1.37251=T 4.466843622=T 10.7426553826=T 0.26463242=T pbc="F F F"
O        1.07255106      -0.04484600       0.01077219
C        2.47478306       0.03509450       0.01928394
S        2.89111339       1.82514890      -0.01777520
O        2.50746187       2.38512914      -1.31384091
O        2.48688939       2.44283692       1.24539920
C        4.62445338       1.66216791      -0.00013482
C        5.83727741       1.59617868       0.01114454
H        0.81643616      -0.98213932       0.02893192
H        2.95603589      -0.39043658      -0.87829371
H        2.94260993      -0.34962617       0.94203778
H        6.90856846       1.53966202       0.02106507
