17
Properties=species:S:1:pos:R:3 -1649.1656810592408=T 11.002671=T 11.79659=T -8.8368=T -6.8077=T -10.19=T 0.7619=T -0.212=T 0.625=T 9.62782=T 0.02091=T 4.3620382562=T 12.5112288824=T 0.312994706=T pbc="F F F"
C        1.46066698      -0.38027685       0.25924646
N        2.51450900      -0.27461747      -0.75037173
C        2.24140732      -1.16813540      -1.87937755
C        2.69712438       1.10477042      -1.20764355
C        4.08685824       1.38912772      -1.79890450
N        5.05844973       0.55127462      -1.33686327
O        4.28323536       2.32485643      -2.57136598
H        1.70412394       0.25873771       1.11931367
H        1.39434983      -1.41929309       0.61260330
H        0.46125310      -0.08454632      -0.12562484
H        2.19636289      -2.20818590      -1.52634824
H        3.04716882      -1.09211294      -2.62242977
H        1.28142652      -0.92844652      -2.38472502
H        2.59048154       1.78117846      -0.34466912
H        1.94939345       1.42369638      -1.96093458
H        4.77673483      -0.22884176      -0.74608759
H        6.00773404       0.65172451      -1.67903769
