16
Properties=species:S:1:pos:R:3 -1550.4929667795197=T 9.907813=T 10.79292=T -9.6821=T -7.469=T -10.734=T 0.7012=T -0.3377=T 2.547=T 10.13532=T -2.25607=T 8.1308530968=T 13.2661672378=T 0.063837506=T pbc="F F F"
N        0.85788062      -0.09535210       0.02354251
C        2.31651399      -0.06968863      -0.02604872
C        2.72746470      -0.02765048      -1.49916198
O        2.11861544       1.06553056      -2.17286337
C        2.98160427       1.03384686       0.82503557
O        3.94059002       0.08241476       1.37343190
C        3.18775291      -1.03445441       0.82418748
H        0.51856149       0.01015764       0.98177395
H        0.49841159      -0.98622682      -0.33154782
H        2.45715253      -0.99592409      -1.97387577
H        3.81825505       0.09121594      -1.58294887
H        1.21458268       1.11265023      -1.79547262
H        2.32406041       1.44513392       1.61309714
H        3.46785756       1.85634713       0.27973391
H        3.83648090      -1.74427542       0.28330598
H        2.61989585      -1.57083508       1.60650070
