18
Properties=species:S:1:pos:R:3 -1739.6602812877454=T 11.288863=T 12.53183=T -9.2574=T -7.1375=T -10.532=T 0.9015=T 0.0001=T 2.987=T 9.84492=T -2.65223=T 8.3903929906=T 11.776562238=T 0.12381178=T pbc="F F F"
C        2.70587042      -0.87165217      -0.61419853
C        2.32507205       0.40672624       0.12310929
N        3.37002923       1.42703287      -0.01631173
C        3.26950391       2.31404461      -1.18884502
C        2.97230200       2.82536955       0.18049646
C        3.97050706       3.65584958       0.97064088
O        5.29958031       3.18976296       0.78253110
H        1.93095539      -1.63940116      -0.48116404
H        3.65764520      -1.26917527      -0.23562204
H        2.81904995      -0.68650573      -1.69229986
H        2.20661059       0.20395031       1.19981436
H        1.34857177       0.78378286      -0.24738650
H        2.41654993       2.16472720      -1.85972957
H        4.21692896       2.56601638      -1.67017059
H        1.91585206       3.01371011       0.40981853
H        3.68682717       3.62486443       2.04225978
H        3.93350014       4.70861204       0.64693703
H        5.19970385       2.21530519       0.69486046
