9
Properties=species:S:1:pos:R:3 -1082.0753661231781=T 11.414762=T 11.53329=T -9.9107=T -8.1449=T -9.918=T -0.5241=T -2.1671=T -1.179=T 9.31994=T 1.78184=T 4.6525622514=T 10.2473065154=T 0.339000288=T pbc="F F F"
N        0.90126701      -0.02046922      -0.00713959
C        2.06967476       0.03068544      -0.00399111
C        3.49003675       0.07277787      -0.00011060
C        4.25331394       1.23198935       0.00178008
S        5.90837924       0.80052418       0.00644443
N        5.64361137      -0.86013261       0.00588089
C        4.34049446      -1.08068847       0.00241580
H        3.90744400       2.26195682       0.00068400
H        3.97734846      -2.10932336       0.00156612
