19
Properties=species:S:1:pos:R:3 -1874.356837716884=T 11.585107=T 12.9413=T -9.8243=T -7.6855=T -11.553=T 0.8954=T -0.0426=T 2.688=T 11.22584=T -2.30836=T 9.2589149206=T 11.7545051286=T 0.178834627=T pbc="F F F"
C        1.08953061       0.30542809       0.10353797
C        2.59007826      -0.01455866       0.01671198
C        3.00192874      -0.93019731       1.16941899
O        2.84733601      -0.80220216      -1.17746446
C        3.38005457       1.29299722      -0.06114413
C        3.94357958       2.00870414       1.14649897
C        4.87261355       1.36720699       0.14190980
H        0.77073423       0.91173512      -0.75844206
H        0.85910014       0.87320836       1.01706875
H        0.50301061      -0.62369423       0.10503280
H        2.76906035      -0.48074143       2.14335877
H        4.07286970      -1.16885435       1.12786131
H        2.44704719      -1.87425333       1.08559520
H        2.72569995      -0.21594601      -1.94523253
H        2.98810288       1.96031095      -0.83761460
H        3.84933760       1.52686262       2.12009965
H        3.87523764       3.09669655       1.17495542
H        5.44587168       2.01468302      -0.52220779
H        5.39344671       0.45772441       0.44173597
