18
Properties=species:S:1:pos:R:3 -1741.5720437755774=T 11.153584=T 12.42342=T -8.9024=T -6.7778=T -10.377=T 0.868=T -0.0622=T 2.776=T 9.7467=T -2.51795=T 8.2306370296=T 9.6594516936=T 0.079697838=T pbc="F F F"
C        0.90038563       0.02108724       0.03233145
C        2.42040186       0.00797047       0.03990509
C        3.19678375       1.01638709       0.92265287
N        4.14972626      -0.05848326       1.38358663
C        3.17455598      -1.08227779       0.84507931
C        3.79134327      -2.26290837       0.12816499
O        4.51265479      -3.12916986       1.01029862
H        0.49220223      -0.84143597      -0.51546102
H        0.51162153       0.93096320      -0.44909511
H        0.50381317      -0.01273493       1.05876171
H        2.81274594       0.03858835      -0.99200890
H        2.59896594       1.37693110       1.77600156
H        3.66692043       1.87986829       0.43112921
H        4.95241650      -0.03951348       0.74114543
H        2.56161127      -1.45298318       1.68686391
H        4.44732566      -1.89625182      -0.68954318
H        3.00278119      -2.88006911      -0.33180492
H        5.03516460      -2.56231795       1.60647236
