12
Properties=species:S:1:pos:R:3 -1275.9402802686652=T 11.62149=T 11.87618=T -8.5145=T -6.6159=T -8.667=T 1.1164=T -0.457=T -0.016=T 8.19276=T 0.64747=T 4.3447298106=T 11.214037756=T 0.282627626=T pbc="F F F"
C        3.09761658      -1.26677941       0.53836388
O        2.37601172      -0.05941920       0.25851675
C        3.10409005       1.06767954       0.16232506
N        2.55348915       2.22114464      -0.08801158
C        3.51303284       3.20554708      -0.13433497
C        4.80818295       2.81878314       0.07971550
S        4.87189383       1.10202901       0.36387031
H        2.34542524      -2.06096666       0.57852528
H        3.61634968      -1.19596410       1.50758634
H        3.82396201      -1.48198563      -0.26139159
H        3.20452376       4.23078060      -0.33573026
H        5.71470218       3.41588099       0.08957529
