14
Properties=species:S:1:pos:R:3 -1493.6057406684015=T 9.78411=T 10.8667=T -10.4351=T -8.3183=T -11.753=T 0.8656=T -0.3575=T 1.351=T 11.33325=T -0.94327=T 5.3829017844=T 12.0060479254=T 0.151722166=T pbc="F F F"
N        1.25091548      -0.46218883       0.85589811
C        2.30072747      -0.21835585       0.40888687
C        3.63490139       0.09146538      -0.14734552
C        4.31001272       1.27517793       0.61558592
C        5.50704553       0.60586495       1.33051334
C        5.16972359      -0.88392385       1.24882944
O        4.50983879      -1.03408191      -0.02366115
H        3.51375694       0.29074958      -1.22271102
H        3.60741339       1.72906151       1.32538875
H        4.62981510       2.05251824      -0.08880149
H        6.44137974       0.80841247       0.78928144
H        5.62480525       0.95493174       2.36473811
H        6.04228603      -1.54866854       1.23636022
H        4.49240859      -1.19237281       2.06684697
