15
Properties=species:S:1:pos:R:3 -1607.138006546332=T 12.377452=T 13.78823=T -9.9402=T -7.6705=T -9.53=T 0.9572=T -0.0394=T 1.831=T 9.21097=T -1.5456=T 4.3192506876=T 10.7217141472=T 0.860612653=T pbc="F F F"
C        0.98066309      -0.11439599      -0.15706622
C        2.49283063      -0.03625874       0.03164022
C        3.03582921       1.42464351       0.00007320
C        2.47366604       2.24268173       1.08260958
C        1.98657889       2.89780982       1.97954197
C        4.50327454       1.44575715       0.02306378
C        5.71585963       1.42874857       0.02495945
H        0.64255821      -1.15924703      -0.12347144
H        0.67561534       0.30448057      -1.12816000
H        0.45159140       0.43894083       0.63140156
H        3.01280531      -0.59132078      -0.76328330
H        2.79074541      -0.48839201       0.98929532
H        2.71132699       1.87640419      -0.95792146
H        1.56842451       3.48965170       2.76770784
H        6.78655080       1.42472647       0.03261949
