14
Properties=species:S:1:pos:R:3 -1484.6939549004344=T 12.341901=T 13.9893=T -9.2949=T -7.184=T -9.146=T 0.8426=T -0.2298=T 1.881=T 8.78171=T -1.57906=T 4.1373384284=T 11.0467434462=T 0.374465474=T pbc="F F F"
C        0.91921984      -0.02411661       0.01943738
C        2.37365455       0.00392508       0.00889767
C        3.58935995       0.04381206       0.00243668
C        5.06307063       0.02648887      -0.04538955
N        5.63604619      -0.71663960      -1.19541594
C        5.60429983       1.39304005      -0.01483045
C        6.04597044       2.52162481       0.01364166
H        0.50595550       0.99537542       0.03214530
H        0.53769801      -0.55283376       0.90545817
H        0.52473628      -0.53450829      -0.87192336
H        5.42636069      -0.48629137       0.86535605
H        5.32160360      -0.25969322      -2.05719938
H        5.21516655      -1.65056261      -1.20294551
H        6.43816795       3.51770918       0.03759130
