17
Properties=species:S:1:pos:R:3 -1785.6518823603553=T 13.644819=T 13.73152=T -8.7073=T -6.7494=T -8.6=T 0.532=T -1.0116=T 0.234=T 7.99589=T 0.31806=T 5.2147643698=T 0.683255666=T pbc="F F F"
C        2.19600548      -0.91206613       1.16388716
C        2.11295115      -0.00457786      -0.03909354
C        1.45945805      -0.34763650      -1.16042137
C        2.77151201       1.33421851       0.08494773
C        2.02591626       2.45703383       0.18480718
C        4.23652294       1.41622583       0.10941826
C        5.08373724       0.41375265      -0.18519888
H        3.23774022      -1.06971268       1.47978669
H        1.73742988      -1.88823983       0.95796674
H        1.67582352      -0.45487927       2.02107658
H        0.96332784      -1.31649356      -1.25138955
H        1.41138269       0.32723608      -2.01616341
H        0.93650122       2.41773779       0.16448705
H        2.49683770       3.43725003       0.28760299
H        4.64508352       2.40014121       0.36377859
H        4.72225368      -0.57581190      -0.47189792
H        6.16288660       0.56582181      -0.16638429
