11
Properties=species:S:1:pos:R:3 -1113.2841246230303=T 10.242506=T 10.8814=T -10.0418=T -8.1057=T -10.684=T -0.3387=T -2.3644=T -1.886=T 10.10631=T 2.67305=T 3.5615226472=T 6.6549361514=T 0.25402297=T pbc="F F F"
C        2.59366129      -0.73085115      -1.15131981
C        3.06658068      -0.12630107      -0.06233065
S        3.27711798       1.64288371      -0.05952350
O        2.85294833       2.20619854      -1.35437758
O        2.77769108       2.17584492       1.22213624
C        5.13727561       1.86411342       0.01018587
O        5.92291479       0.95704593       0.02889259
H        2.40700065      -1.80550817      -1.15969097
H        2.37213958      -0.15692651      -2.05295028
H        3.30355798      -0.60988743       0.88564650
H        5.38587204       2.95092782       0.04141157
