16
Properties=species:S:1:pos:R:3 -1654.7992030891717=T 10.667485=T 11.62345=T -8.8054=T -6.7602=T -10.262=T 0.9849=T 0.1099=T 2.999=T 9.61678=T -2.7028=T 8.2864927226=T 11.4322035216=T 0.190033619=T pbc="F F F"
C       -1.29234438       0.95618242       0.54027512
C       -1.42639359      -0.39539248      -0.12394404
C       -0.38321510      -1.47264575       0.18234734
C        0.93376635      -0.94818507      -0.39365405
C        1.56382490       0.27886260       0.16653764
N        0.71782139       0.37789355      -1.04002808
C       -0.69510143       0.72820625      -0.83137020
H       -2.18509306       1.58254846       0.57728176
H       -0.64960159       1.06030388       1.41476381
H       -2.41818849      -0.71729701      -0.44641138
H       -0.31086933      -1.70512986       1.25686484
H       -0.65955278      -2.40476444      -0.33191623
H        1.55773807      -1.65201362      -0.95272686
H        1.19585559       0.66851924       1.11780925
H        2.62389551       0.47318262      -0.01626406
H       -1.13404205       1.25177920      -1.68156485
