14
Properties=species:S:1:pos:R:3 -1416.6749921443952=T 8.689854=T 9.55153=T -10.0233=T -7.889=T -11.301=T 0.662=T -0.4507=T 0.131=T 10.29596=T 0.47169=T 4.3316492876=T 13.9092702212=T 0.16599165=T pbc="F F F"
C        0.96469502      -0.03175962      -0.09206641
C        2.50094109       0.00532878      -0.04762144
C        3.12676860      -0.89556950      -1.12475303
C        3.03340462       1.43735215      -0.13027152
O        2.75545826       2.12226600      -1.28995735
O        3.66812763       1.98265676       0.74443803
H        0.52367223       0.62228786       0.67228770
H        0.61003749      -1.05635133       0.08844972
H        0.57071858       0.27971458      -1.07278346
H        2.83222227      -0.34644431       0.94021446
H        2.80450868      -0.61327399      -2.13988968
H        2.81791440      -1.93839348      -0.96569777
H        4.22407780      -0.85583389      -1.09543648
H        2.24055334       1.54727999      -1.88871278
