16
Properties=species:S:1:pos:R:3 -1550.6435717563147=T 9.977048=T 11.20566=T -9.4443=T -7.1995=T -10.777=T 0.7477=T -0.3253=T 2.837=T 10.23519=T -2.56678=T 8.5006413418=T 10.5791550444=T 0.118987199=T pbc="F F F"
O        1.27781003       0.40198742      -0.64074270
C        2.54094746      -0.01440846      -0.10279371
C        3.39530956       1.20493827       0.15458441
N        3.38158472       2.33318862      -0.80451124
C        2.79593192       2.50196116       0.55356482
C        3.55383061       3.49778918       1.41636681
O        4.92898433       3.55428000       1.06015069
H        0.78525454      -0.39158664      -0.90315705
H        3.06481013      -0.67998656      -0.81442482
H        2.40753872      -0.56738692       0.84631068
H        4.39522436       0.96938599       0.53342944
H        2.62201356       2.18419560      -1.47777525
H        1.70503936       2.53814173       0.62012855
H        3.49416291       3.21089170       2.47891878
H        3.07586358       4.49269655       1.31061138
H        4.92710420       3.43705236       0.08354921
