17
Properties=species:S:1:pos:R:3 -1638.1817512580171=T 11.568959=T 12.58541=T -8.6496=T -6.5137=T -9.11=T 1.0267=T 0.0949=T 1.438=T 8.59849=T -0.81541=T 6.3593411288=T 0.398595124=T pbc="F F F"
C        1.24357063      -0.30734387      -0.23583213
N        2.67499953      -0.22376471       0.04228473
C        3.19374563       1.14359671      -0.07363323
C        4.66763742       1.18725275       0.20038096
C        5.58515235       1.65685418      -0.65612536
C        7.05985874       1.71627824      -0.39927620
H        0.92357906      -1.35815959      -0.20857002
H        0.94225387       0.12436441      -1.21458548
H        0.68712864       0.23011847       0.54809140
H        3.18702666      -0.81921660      -0.61386323
H        2.65996619       1.75412373       0.67894340
H        2.98189224       1.60979409      -1.06237313
H        4.98403634       0.78757135       1.17125959
H        5.24354630       2.04010944      -1.62644677
H        7.31482153       1.30764594       0.58837659
H        7.43067153       2.75290739      -0.44771948
H        7.61938333       1.15015807      -1.16138165
