17
Properties=species:S:1:pos:R:3 -1690.4341322832393=T 10.819999=T 12.37924=T -9.4164=T -7.3525=T -10.723=T 1.2422=T -0.616=T 0.187=T 9.73386=T 0.52263=T 3.7484191436=T 8.1143505602=T 0.170524511=T pbc="F F F"
C        2.36825303       0.10006529      -0.83147237
O        3.67951905       0.63316993      -0.71381537
C        3.65915811       1.98488574      -0.26101447
C        5.09692526       2.46871900      -0.17951498
C        5.23291846       3.90920485       0.28592411
C        6.63806470       4.47995123       0.29159863
O        4.26501873       4.57443858       0.62957002
H        2.47045022      -0.93481893      -1.18177579
H        1.76203074       0.67052704      -1.56059807
H        1.83945214       0.10259692       0.14046191
H        3.17008866       2.05842470       0.72887753
H        3.07780257       2.62024068      -0.95672726
H        5.59128521       2.36054429      -1.16010821
H        5.67385145       1.82514544       0.50732521
H        7.33575234       3.80790100       0.81254908
H        6.63845430       5.46728668       0.76593989
H        7.00110502       4.57425756      -0.74368984
