16
Properties=species:S:1:pos:R:3 -1586.1418994123426=T 12.857383=T 12.64412=T -8.48=T -6.5991=T -9.31=T 0.4423=T -1.1334=T -0.329=T 8.71951=T 0.84667=T 5.1507379994=T 5.229791473=T 0.627882058=T pbc="F F F"
C        4.31092856      -0.76048602      -0.97473558
O        5.52882341      -0.02731671      -0.78627819
N        5.20256556       1.30456515      -0.49079543
C        6.27375529       2.02803479      -0.31306940
C        7.66490916       1.47607266      -0.42084897
C        5.99066367       3.42352519       0.00434467
C        6.89518656       4.39043074       0.24635814
H        4.62109373      -1.78706652      -1.20362811
H        3.73103104      -0.34525411      -1.81226791
H        3.70100652      -0.74509197      -0.05933952
H        7.80205205       0.98541134      -1.39470361
H        7.82566761       0.70242513       0.34423342
H        8.42554229       2.25386421      -0.30257568
H        4.92381903       3.66100232       0.04073322
H        7.97116907       4.21222885       0.22630571
H        6.57161646       5.40513493       0.47660725
