14
Properties=species:S:1:pos:R:3 -1447.3257479609072=T 10.628023=T 11.02574=T -9.0496=T -7.1104=T -9.87=T 0.973=T -0.7016=T -0.363=T 9.38113=T 0.91615=T 4.1087596554=T 5.2794726632=T 0.34672417=T pbc="F F F"
C        3.19717656      -0.55183494       1.10607662
O        2.75959434       0.23425367      -0.01153416
C        3.28999813       1.46714592      -0.13255580
C        4.19072274       2.07633216       0.66898521
C        4.62040619       3.45178125       0.32176885
N        5.53996932       4.00320589       1.19829956
O        4.23759925       4.06777897      -0.67606376
H        2.66217106      -1.50416517       1.03165294
H        2.94400175      -0.05301269       2.05461852
H        4.28312483      -0.72694049       1.05660240
H        2.90212632       1.98866092      -1.01042346
H        4.60887733       1.59019428       1.55069573
H        5.66108490       3.61572143       2.12820174
H        5.72596728       4.99466880       1.07967562
