15
Properties=species:S:1:pos:R:3 -1547.4680244137949=T 10.47448=T 11.25783=T -9.1139=T -7.1208=T -9.935=T 1.2767=T -0.3104=T 0.862=T 9.45412=T -0.24726=T 4.866822458=T 6.357072185=T 0.152299644=T pbc="F F F"
C        1.20930341       0.14340178       0.56882525
C        2.55849673      -0.13137047      -0.04384155
C        3.35612339       0.95723687      -0.66935373
N        3.76949826       0.40788586       0.66311428
C        4.71946534      -0.64871216       0.47159460
N        4.35047972      -1.73711977      -0.09489257
C        2.92676051      -1.56614046      -0.44421754
H        1.15057282       1.17278710       0.94608432
H        1.01767309      -0.54200548       1.40775989
H        0.41077498       0.00423851      -0.17547139
H        2.98469525       1.98393221      -0.63222623
H        3.99672370       0.71621438      -1.52247207
H        5.73523165      -0.49161038       0.84483790
H        2.77786784      -1.78617775      -1.51296562
H        2.32579330      -2.29687025       0.12338446
