20
Properties=species:S:1:pos:R:3 -1935.0519604279777=T 12.333364=T 13.81765=T -9.3677=T -7.2033=T -10.957=T 0.9076=T -0.0014=T 2.928=T 10.2787=T -2.63044=T 8.8577334204=T 10.8387073368=T 0.13706407=T pbc="F F F"
C        0.79761383      -0.65208863       0.22926674
C        2.27739148      -0.52167232      -0.15129639
C        2.77260312      -1.79232311      -0.85413276
C        2.50438086       0.74345576      -0.99942127
C        3.95580588       1.06111570      -1.28386242
C        4.64829707       0.63807175      -2.53312982
N        4.21176101       2.04219013      -2.36399134
H        0.44214653       0.23484052       0.77471080
H        0.62637389      -1.53261391       0.86628765
H        0.17121003      -0.76479263      -0.67045056
H        2.85623713      -0.40485163       0.78481549
H        2.22694949      -1.95211777      -1.79866540
H        2.61129095      -2.67889351      -0.22294166
H        3.84415618      -1.73722454      -1.09115524
H        2.05827246       1.60856009      -0.47844232
H        1.96796462       0.65322476      -1.96004738
H        4.59198270       1.13379283      -0.39266621
H        4.09071115       0.08075400      -3.29060540
H        5.71502131       0.40364541      -2.48222279
H        5.01973031       2.62295709      -2.11952972
