15
Properties=species:S:1:pos:R:3 -1570.6231198008754=T 11.103839=T 12.06232=T -9.8799=T -7.778=T -10.103=T 0.4091=T -1.2562=T -0.518=T 9.56106=T 1.13319=T 4.246458507=T 5.3709371354=T 0.418425155=T pbc="F F F"
C        1.24641370       0.46135104      -0.46814160
O        2.65195151       0.35846962      -0.15672471
C        3.36397596       1.51183345      -0.36089047
O        2.86120572       2.54542999      -0.77271608
C        4.78472400       1.29975068      -0.01082438
C        5.68136454       2.29301785      -0.12673908
C        7.13125145       2.18528628       0.20256522
H        0.82854726      -0.52962758      -0.26379535
H        1.10430462       0.73378898      -1.52236177
H        0.76730849       1.22251340       0.16204171
H        5.06695010       0.30605502       0.34472043
H        5.31382053       3.25879843      -0.49115288
H        7.40324790       1.18298224       0.55862600
H        7.40754902       2.91990528       0.97599492
H        7.74774519       2.42471531      -0.67875195
