17
Properties=species:S:1:pos:R:3 -1619.5376530115464=T 10.898469=T 11.94115=T -8.6125=T -6.4624=T -9.851=T 0.6767=T -0.3641=T 2.805=T 9.45045=T -2.44316=T 7.7300807504=T 12.924672598=T 0.165905237=T pbc="F F F"
N        2.77179069      -1.08381962      -0.62366478
C        2.25302236       0.04085803       0.16752586
C        3.25219744       1.17154944       0.21912080
O        4.44525443       0.86456545       0.93290044
C        3.47762236       2.05222349      -0.98111323
C        2.79466998       2.63242997       0.23409117
N        3.46355390       3.66000781       1.00044997
H        2.15491477      -1.89379609      -0.53186216
H        3.68002101      -1.36220576      -0.24204887
H        1.98434308      -0.22606196       1.21509086
H        1.32823758       0.40741087      -0.30812157
H        4.20598022       0.79499072       1.87656266
H        2.89793638       1.85232061      -1.88220490
H        4.50921667       2.36313579      -1.15728467
H        1.71697489       2.80329710       0.15316044
H        4.46481425       3.45147167       1.04790217
H        3.12192000       3.65607248       1.96630582
