18
Properties=species:S:1:pos:R:3 -1785.3696865846612=T 11.206029=T 12.19708=T -9.1816=T -7.2121=T -10.672=T 0.6945=T -0.2982=T 0.588=T 9.58816=T 0.08993=T 4.3591865782=T 6.7712722152=T 0.116161803=T pbc="F F F"
C        1.02468755      -0.00507732      -0.13252112
C        2.56230486      -0.07477465      -0.01937321
C        2.94681190      -0.75443034       1.30220145
C        3.14307549      -0.88175312      -1.19981383
C        3.15462100       1.36048944      -0.02276627
N        2.89811675       2.10732558      -1.14565405
O        3.81274723       1.81832749       0.90886858
H        0.69080032       0.42279854      -1.08943488
H        0.59559691       0.60240899       0.67736331
H        0.60014035      -1.01764331      -0.05846203
H        2.55575461      -0.19651764       2.16297284
H        4.03721510      -0.80988803       1.41650210
H        2.53675528      -1.77478311       1.32680565
H        2.84936089      -0.47072307      -2.17706742
H        2.77873558      -1.91922139      -1.15587027
H        4.24163991      -0.90624108      -1.15978736
H        2.35901229       1.75841759      -1.92821414
H        3.26852398       3.05099544      -1.18354933
