12
Properties=species:S:1:pos:R:3 -1289.6299595394892=T 11.89702=T 12.09671=T -8.1754=T -6.4755=T -9.714=T 0.5398=T -1.071=T -0.614=T 9.35517=T 1.10999=T 4.133321282=T 11.3433303568=T 0.356719017=T pbc="F F F"
C        0.94716307       0.01491190      -0.00818795
C        2.44002890       0.07954500      -0.00073438
C        3.21555025       1.19356478       0.00458351
S        4.92855363       0.87455770       0.01242071
N        4.58744121      -0.80703719       0.00836036
C        3.23234750      -1.16394608       0.00153046
O        2.83962690      -2.33099703      -0.00172333
H        0.49647427       1.01476683      -0.00548916
H        0.58461281      -0.54189778       0.86859245
H        0.59283348      -0.53324198      -0.89377288
H        2.89810475       2.23411763       0.00444673
H        5.33438322      -1.49668376       0.01158346
