16
Properties=species:S:1:pos:R:3 -1643.0763770218691=T 12.839821=T 13.50557=T -8.9854=T -6.8629=T -8.775=T 0.6294=T -0.9799=T 0.558=T 8.26229=T -0.01225=T 4.058247759=T 6.041713794=T 0.441494237=T pbc="F F F"
N        0.96890839       0.21774670      -0.10370975
C        2.40218678      -0.09616410       0.00145540
C        3.22824592       1.19111194      -0.13235557
C        4.72163618       0.95701020      -0.02410775
C        5.45574047       1.43365902       1.00366059
C        5.33192530       0.19413241      -1.06569628
C        5.81224772      -0.45175724      -1.97943718
H        0.41662923      -0.62305928       0.07847913
H        0.74682523       0.49860676      -1.06312287
H        2.76397564      -0.83470477      -0.74014946
H        2.58146635      -0.52874346       0.99889463
H        2.90892153       1.90413094       0.64145170
H        3.01100248       1.65105152      -1.11252024
H        4.98636029       2.01985207       1.79494757
H        6.52819458       1.25159159       1.06889397
H        6.25057391      -1.02188431      -2.77271390
