15
Properties=species:S:1:pos:R:3 -1586.825518679915=T 11.124714=T 12.20469=T -9.7713=T -7.5116=T -9.934=T 1.1393=T -0.8944=T -0.099=T 10.1505=T 0.72401=T 3.6783298578=T 10.66155614=T 0.601041512=T pbc="F F F"
O        3.11399901       2.99455013       2.05753909
C        2.47831271       2.71973593       1.05497592
C        2.97309305       1.86015644      -0.08083285
C        4.41452632       1.37337674       0.04794516
C        5.46241238       2.48850909      -0.16773855
C        5.39206494       3.09832111      -1.49097314
C        5.30854767       3.59214884      -2.59765645
H        1.43253399       3.10371460       0.92413093
H        2.82190327       2.42754565      -1.01770583
H        2.26682230       1.01257253      -0.15383792
H        4.59158018       0.57031787      -0.68223020
H        4.56840581       0.95093344       1.05199520
H        6.47030604       2.06829130      -0.01860314
H        5.33298115       3.26512734       0.60275317
H        5.24865121       4.03337899      -3.57152139
