19
Properties=species:S:1:pos:R:3 -1812.718760142796=T 11.864043=T 13.13526=T -8.9871=T -6.8081=T -10.411=T 0.9025=T -0.0165=T 2.874=T 9.92088=T -2.54705=T 8.2321372602=T 11.4774088172=T 0.20679989=T pbc="F F F"
C        1.12704323      -0.10786984      -0.10980697
C        2.61250571       0.15884545      -0.10425160
N        3.50334656      -0.39762863      -1.15787105
C        3.30022344       1.08003346      -1.05820421
C        2.54422793       1.80916280      -2.14916545
C        4.56308509       1.78810845      -0.58550254
N        5.55184740       1.81561135      -1.67344350
H        0.60353486       0.58640866       0.56573714
H        0.91962519      -1.13023386       0.24128930
H        0.68402978      -0.00130844      -1.10931414
H        3.06373440       0.07868169       0.89245425
H        2.91452111      -0.75505835      -1.92026123
H        1.71796551       1.21387087      -2.55911807
H        3.23493414       2.05699647      -2.96752847
H        2.12383368       2.75319042      -1.76696352
H        4.92042514       1.28205826       0.33270233
H        4.31638176       2.82842908      -0.31333940
H        5.84348012       0.85078872      -1.85729582
H        6.38793495       2.32139344      -1.37511707
