13
Properties=species:S:1:pos:R:3 -1385.127412370836=T 10.895971=T 12.02072=T -9.8444=T -7.6643=T -9.992=T 0.9567=T -0.4015=T 1.247=T 9.87102=T -0.86543=T 4.4093885096=T 10.8405175324=T 0.718102411=T pbc="F F F"
C        1.19437479      -0.43904682       0.62094368
C        2.36533848      -0.33728575       0.32250664
C        3.78049293      -0.22540497      -0.00627356
N        4.26600788       1.15432712       0.19107052
C        5.70107236       1.29666681      -0.03392447
C        6.55695707       0.46966160       0.84341799
N        7.16947453      -0.20571411       1.57222168
H        0.15875197      -0.52846760       0.87891521
H        3.93113298      -0.48675174      -1.06849044
H        4.34585661      -0.97181099       0.58931511
H        4.02991282       1.45782521       1.13957449
H        5.98132853       2.35132862       0.10318942
H        5.93175906       1.03964262      -1.08050625
