15
Properties=species:S:1:pos:R:3 -1601.280515086841=T 10.659081=T 11.60407=T -8.1836=T -6.0924=T -8.729=T 0.9967=T 0.1305=T 1.221=T 8.34949=T -0.66275=T 5.6368871054=T 11.5340084262=T 0.332574729=T pbc="F F F"
C        1.05164054       0.03910789       0.64349728
C        2.42768827      -0.03737147       0.02455989
C        2.65827216       0.68714252      -1.27001963
O        3.98553763       1.11105042      -1.59938724
C        4.73680688      -0.03965741      -1.72483677
C        4.04037781      -1.18271012      -1.59004565
C        2.62965075      -0.84267806      -1.26113512
H        0.94708026       0.93786474       1.27026432
H        0.84900478      -0.84015017       1.27352421
H        0.26773107       0.07937205      -0.12756140
H        3.27156127      -0.05964081       0.71968650
H        1.89482036       1.33464103      -1.70336249
H        5.79275425       0.13111832      -1.92087658
H        4.44322960      -2.18549928      -1.70021346
H        1.79763438      -1.42492963      -1.66394386
