15
Properties=species:S:1:pos:R:3 -1504.1090979518578=T 10.309982=T 11.17915=T -9.2371=T -7.2007=T -10.594=T 0.8624=T -0.0566=T 0.675=T 9.57665=T -0.02583=T 4.372676255=T 6.8140349866=T 0.144963005=T pbc="F F F"
N        2.63539034      -1.08967571       0.74564477
C        2.17538097      -0.08791659      -0.05518506
O        1.09767257      -0.10884439      -0.64622928
C        3.10976141       1.12573868      -0.14214511
N        4.46991102       0.84206299       0.31881725
C        5.44601608       0.53519109      -0.73983099
C        5.47684137       1.84947414      -0.03559762
H        3.53666154      -0.98009546       1.20424398
H        2.06320038      -1.91515234       0.88475231
H        2.67689793       1.90528251       0.50590871
H        3.06167105       1.50031932      -1.18244523
H        5.08357969       0.52770032      -1.77247449
H        6.17975865      -0.23579397      -0.49616682
H        6.23232773       2.04979497       0.72683433
H        5.13945926       2.72386444      -0.60051675
