14
Properties=species:S:1:pos:R:3 -1398.3056363232345=T 10.759314=T 10.71022=T -8.7799=T -6.8405=T -9.229=T 0.8298=T -0.8676=T -0.078=T 8.70789=T 0.72212=T 4.271627665=T 5.0738542808=T 0.29248297=T pbc="F F F"
C        1.88622798      -0.22124753      -0.61925951
O        2.40160859       0.57447999       0.47452402
N        2.93134763       1.77912342      -0.01447736
C        2.09036525       2.89066458      -0.10290031
C        0.79254478       2.91179647       0.23227289
C        4.30736294       1.81915917      -0.18770282
O        4.92721985       2.81476304      -0.52985125
H        2.69960432      -0.53660147      -1.29006047
H        1.12287335       0.33319136      -1.18368375
H        1.43639648      -1.09810876      -0.13810394
H        2.63184660       3.75710441      -0.48505732
H        0.28374466       2.03816765       0.63605608
H        0.23013445       3.83558456       0.11996949
H        4.75483312       0.82501310       0.02557424
