15
Properties=species:S:1:pos:R:3 -1514.7534682227813=T 10.323491=T 11.29219=T -9.2991=T -7.344=T -10.68=T 0.8382=T -0.1559=T 0.621=T 9.76259=T -0.00737999999998=T 4.5932101532=T 12.3087225486=T 0.156876728=T pbc="F F F"
C        1.02921200      -0.20474644       0.14830020
C        2.47941802       0.03813769      -0.17873892
C        3.14421087      -0.52139493      -1.39569249
N        2.78680738       0.89485870      -1.34912198
C        3.85822471       1.82751434      -1.24949479
N        3.46075516       3.00040300      -0.63768523
O        4.99423442       1.62761499      -1.66362619
H        0.60765752       0.63033760       0.72722345
H        0.92046238      -1.11934262       0.75008068
H        0.43905232      -0.31996242      -0.77074390
H        3.14184760       0.18443836       0.68207893
H        2.55643799      -1.11550195      -2.09971101
H        4.21060664      -0.75334448      -1.34592205
H        2.46985722       3.22148924      -0.64652589
H        4.10208578       3.78020892      -0.74379080
