13
Properties=species:S:1:pos:R:3 -1444.2373598443105=T 9.521096=T 10.20963=T -9.4225=T -7.2851=T -9.81=T 0.8986=T -0.7805=T 0.123=T 10.3168=T 0.52598=T 4.3652618922=T 12.4103042784=T 0.266897496=T pbc="F F F"
C        0.94557234       0.01357521      -0.06041907
C        2.47890563      -0.05901889       0.01843510
C        3.11966123      -1.27414597      -0.58931577
C        3.97840648      -0.86714122      -1.52989240
O        4.04360429       0.51796334      -1.68317085
C        3.14057381       1.08004516      -0.76539521
O        2.97617207       2.26992277      -0.68738548
H        0.59671586       0.99054141       0.29892209
H        0.49377113      -0.77186010       0.55960094
H        0.60195532      -0.12192270      -1.09480804
H        2.78433794       0.06724929       1.07305200
H        2.92031199      -2.30557396      -0.31277255
H        4.63444191      -1.42139434      -2.19574075
