13
Properties=species:S:1:pos:R:3 -1353.534660011499=T 10.73086=T 11.05768=T -9.3361=T -7.3911=T -10.356=T 0.1997=T -1.4941=T -0.408=T 9.63806=T 0.9806=T 3.8932595888=T 5.4577769298=T 0.300765506=T pbc="F F F"
O        2.43017570      -0.52415434      -0.68146626
C        2.41384790       0.58484116      -1.19887366
N        3.08382262       1.72477702      -0.73957803
C        4.23965875       1.53352099      -0.18888603
N        4.90073408       2.51573226       0.49600451
C        6.18828053       3.09371146       0.12632930
C        4.92286275       3.91400148       0.12174436
H        1.79723867       0.80529991      -2.09821816
H        4.74867950       0.55686389      -0.18943509
H        6.60635046       2.80771552      -0.84210503
H        6.90532964       3.21206594       0.94119762
H        4.74841307       4.62334904       0.93293613
H        4.47122634       4.16505568      -0.84062966
