19
Properties=species:S:1:pos:R:3 -1870.3420085186774=T 11.81115=T 13.562=T -9.2267=T -7.0144=T -10.922=T 0.9782=T 0.0414=T 2.941=T 10.58843=T -2.6304=T 8.676106329=T 11.0818934772=T 0.235630912=T pbc="F F F"
C        1.03816277      -0.22644291      -0.23407716
C        2.54627587      -0.13701342      -0.47386804
C        3.24500598       0.85960375       0.45918399
C        4.73855274       0.95534964       0.22900698
C        5.67639970       1.47819225       1.31477602
C        5.69991876       0.02494352       0.91821717
O        6.80406443      -0.56787616       0.26627909
H        0.56351077      -0.94274185      -0.91983900
H        0.55194973       0.75020457      -0.38282405
H        0.81680555      -0.55256217       0.79393920
H        2.73732417       0.15513532      -1.52084851
H        3.00584484      -1.13151371      -0.34754560
H        3.05934906       0.57055864       1.50934996
H        2.78931418       1.85934122       0.33759310
H        5.02559573       1.23466412      -0.79163173
H        5.25388449       1.75027024       2.28445459
H        6.51505344       2.10194766       0.99870619
H        5.27846745      -0.69432160       1.62405709
H        7.17347036       0.08159089      -0.35745929
