12
Properties=species:S:1:pos:R:3 -1287.4005438219183=T 7.935392=T 8.64902=T -10.0288=T -7.906=T -11.327=T 0.8138=T -0.2418=T 0.209=T 10.28854=T 0.41425=T 4.3560373338=T 12.5755652178=T 0.16501094=T pbc="F F F"
O        1.18104096      -0.15563526       0.38000644
C        2.33317695      -0.02723661       0.04178576
C        3.19135576       1.23346810       0.02859176
C        4.37061181       0.86284348      -0.87103903
C        4.44619799      -0.65803911      -0.68350578
O        3.08825137      -1.09015488      -0.40567749
H        3.50433669       1.43046708       1.06673750
H        2.59630267       2.09059894      -0.30582981
H        4.14152755       1.10327391      -1.91940002
H        5.31156131       1.35998832      -0.60360388
H        4.78801435      -1.20228118      -1.57263338
H        5.07724256      -0.94042279       0.17504791
