17
Properties=species:S:1:pos:R:3 -1725.7486006706904=T 11.058465=T 12.79254=T -9.8325=T -7.6395=T -11.009=T 0.9602=T 0.1117=T 2.764=T 10.74287=T -2.43597=T 8.7497664116=T 10.4315373128=T 0.267837306=T pbc="F F F"
C        1.13566444      -0.14108654      -0.06190806
C        2.59896025       0.07903969      -0.33470086
O        3.00129717       0.12568265      -1.72708884
C        3.12671911       1.32371258      -0.92719812
C        4.51236244       1.83232381      -0.66963905
C        5.70580585       0.91992320      -0.79750848
C        5.47526912       2.00536581      -1.82388323
H        0.90138640       0.09869588       0.98631174
H        0.86217133      -1.19191430      -0.23652266
H        0.51637711       0.48913310      -0.71428536
H        3.29557436      -0.49355230       0.29251138
H        2.39131605       2.09844570      -1.18851865
H        4.55543161       2.59564911       0.11276122
H        5.51117308      -0.10395338      -1.11936305
H        6.52165012       1.04108446      -0.08476877
H        6.13058418       2.87660402      -1.82195173
H        5.12988739       1.68607652      -2.80802748
