14
Properties=species:S:1:pos:R:3 -1405.5441518283492=T 9.472434=T 10.12259=T -9.148=T -7.1071=T -10.318=T 1.0179=T -0.4883=T 0.487=T 9.90483=T 0.10654=T 5.435856205=T 6.2571518676=T 0.141225948=T pbc="F F F"
O        2.32349457      -0.31429992      -1.52438356
C        2.33961580       0.07279558      -0.14734144
C        3.34929551       1.21764852       0.00131118
C        3.47074015       1.75887546       1.43236589
O        2.82187102       3.07519911       1.41841725
N        2.58448426       3.44780613       0.08537684
C        2.88969006       2.47515312      -0.69663946
H        1.65051451      -1.00589210      -1.63874815
H        2.65283230      -0.76849969       0.49934379
H        1.34311908       0.41575177       0.18780753
H        4.31557202       0.86927051      -0.39542536
H        4.51799173       1.90381685       1.73803273
H        2.95232665       1.14530572       2.18352500
H        2.74669235       2.58865892      -1.76982224
