19
Properties=species:S:1:pos:R:3 -1870.8377688376509=T 11.585236=T 13.04915=T -9.283=T -7.1306=T -11.288=T 0.9281=T 0.0484=T 2.879=T 10.67369=T -2.57243=T 9.1835686284=T 10.2607465978=T 0.161146885=T pbc="F F F"
C        1.07549913       0.10640933       0.14820782
C        2.59466547       0.06156048      -0.05552652
C        2.98330357      -0.78011668      -1.27578723
C        3.14810423       1.47444018      -0.18118803
C        3.16721279       2.38808301       1.06388021
C        4.66340771       2.55361331       0.75145989
O        4.61247837       1.51521011      -0.26895897
H        0.79781546       0.68743747       1.04037472
H        0.66930922      -0.90788881       0.27000713
H        0.57538003       0.56242883      -0.72128318
H        3.06193456      -0.38571018       0.84106437
H        2.51451498      -0.38269684      -2.19038758
H        2.65269011      -1.82191153      -1.15514943
H        4.07172955      -0.77833044      -1.42242368
H        2.70623483       1.96878637      -1.07069129
H        2.96819130       1.84448116       1.99769140
H        2.54920013       3.29318215       1.02559751
H        4.93253007       3.53148312       0.31497222
H        5.37690849       2.30377896       1.55220065
