19
Properties=species:S:1:pos:R:3 -1931.4329927912515=T 14.488825=T 14.65753=T -8.02=T -6.1409=T -8.008=T 0.8582=T -0.6171=T 0.478=T 7.44448=T 0.14231=T 4.8778448134=T 0.733081164=T pbc="F F F"
C        0.96677031       0.17095644       0.21398742
C        2.39745675      -0.21256422      -0.07253444
C        2.53081441      -1.59824950      -0.64653678
C        3.38446178       0.67903263       0.19781853
C        4.84218016       0.64362000       0.04446189
C        5.58063218      -0.54679512      -0.51989881
C        5.54718404       1.73442107       0.42738249
H        0.88520420       1.17865541       0.64115018
H        0.50233015      -0.54097817       0.91719665
H        0.35896934       0.13587650      -0.70612291
H        2.08492346      -2.33435452       0.04354929
H        3.55694677      -1.90757692      -0.85353793
H        1.95450000      -1.67466749      -1.58428194
H        3.03999951       1.63127063       0.61804103
H        5.25236089      -0.77903634      -1.54393246
H        5.42417293      -1.44829037       0.09119946
H        6.65920988      -0.34467146      -0.54979272
H        5.05207753       2.61565121       0.83961868
H        6.63382571       1.76988023       0.33738238
