18
Properties=species:S:1:pos:R:3 -1752.9894512138185=T 11.312346=T 12.37846=T -8.6433=T -6.5498=T -10.054=T 0.733=T -0.244=T 2.889=T 9.74783=T -2.55562=T 7.8546866804=T 9.8566142308=T 0.164755816=T pbc="F F F"
C        1.00961671       0.00176403      -0.16176710
C        2.51835552      -0.00486857      -0.03225776
N        3.06180216      -0.10771571       1.31783296
C        3.37001238      -0.68512871      -1.09647688
C        3.42515167       0.82616424      -0.94504585
C        2.90178254       1.73793879      -2.02491894
O        4.56453801       1.37549310      -0.32535331
H        0.68377173       0.11597209      -1.20430124
H        0.56702850       0.82989454       0.41609064
H        0.58348484      -0.94143971       0.21767918
H        3.00421344      -1.06873570       1.66401185
H        2.52403165       0.47899800       1.96157850
H        2.84952519      -1.11227498      -1.95607075
H        4.24818105      -1.23928362      -0.76013625
H        2.05604752       1.29394565      -2.56432471
H        3.70165907       1.93401587      -2.75411647
H        2.58643764       2.70271236      -1.60072804
H        4.55569035       0.96780832       0.57435417
