18
Properties=species:S:1:pos:R:3 -1792.9354234350947=T 11.805146=T 13.12614=T -8.7548=T -6.6419=T -9.905=T 0.9293=T 0.0038=T 3.054=T 9.48044=T -2.63416=T 7.8110064126=T 12.4134659214=T 0.213612764=T pbc="F F F"
N        0.78518279       0.15214487      -0.44559685
C        2.18466715       0.09309958      -0.05580019
C        3.10926177      -0.75449195      -0.89205264
C        3.25667180       0.75655581      -0.90836893
C        2.40534866       0.08253507       1.43867389
C        1.43384739       0.75177989       2.38385871
C        1.53681306      -0.75661879       2.34405447
H        0.64048001      -0.29746713      -1.34962124
H        0.47810283       1.12348873      -0.53647634
H        2.70014784      -1.23573684      -1.78293233
H        3.86768026      -1.34301092      -0.37365938
H        4.12336989       1.19393781      -0.40903785
H        2.93005069       1.28452248      -1.80577024
H        3.45907850       0.15423956       1.72115537
H        0.52921787       1.18547512       1.95635164
H        1.83846270       1.28445360       3.24500126
H        2.00921349      -1.27174920       3.18096105
H        0.71017328      -1.28429770       1.86729959
