18
Properties=species:S:1:pos:R:3 -1818.627512327196=T 12.171879=T 12.8709=T -8.9841=T -6.8062=T -8.972=T 0.9407=T -0.1699=T 1.423=T 8.46322=T -0.77343=T 6.1244496518=T 0.297796073=T pbc="F F F"
C        0.94696433       0.03968886      -0.09050915
C        2.48366705      -0.00435294      -0.01543262
C        3.03618551      -1.29634953       0.64735625
C        3.42735378      -0.91778271       2.10830734
N        4.64366672      -1.52587949       2.66815060
C        3.52563287       0.58972503       2.03603083
C        3.03514367       1.07770948       0.88923397
H        0.56414337      -0.75163194      -0.75211335
H        0.59491912       1.00541933      -0.48300521
H        0.50059089      -0.09838514       0.90602557
H        2.87237582       0.10902812      -1.04292603
H        3.95207993      -1.61654677       0.12469710
H        2.32264256      -2.13283569       0.60114552
H        2.61242094      -1.18775502       2.80695949
H        5.42492370      -1.37708032       2.02147300
H        4.52149081      -2.53886842       2.74559636
H        3.92938910       1.17386622       2.86455728
H        2.96916981       2.13823094       0.63586304
