14
Properties=species:S:1:pos:R:3 -1474.9942121230017=T 11.004995=T 11.89=T -9.641=T -7.5734=T -10.013=T 0.8008=T -0.182=T 0.261=T 9.94648=T 0.34027=T 4.3197466316=T 10.8185100174=T 0.295135537=T pbc="F F F"
C        1.02956599      -0.03607340       0.60981391
C        2.43607769      -0.00794582      -0.01617161
N        2.43881848      -0.54157269      -1.38638696
C        2.74331325      -1.84548052      -1.65517005
O        3.00915894      -2.69429414      -0.81081327
C        3.01597921       1.33470120      -0.00301498
C        3.46234058       2.46304681       0.00669009
H        1.07012206       0.32619071       1.64546305
H        0.65215335      -1.06651194       0.60741919
H        0.33971312       0.60427611       0.04386838
H        3.08658079      -0.69078140       0.55644300
H        2.25960604       0.09577178      -2.15788395
H        2.72113213      -2.05888541      -2.74825870
H        3.86892838       3.45383870       0.02388190
