18
Properties=species:S:1:pos:R:3 -1788.2035354148284=T 11.866589=T 13.27332=T -8.6796=T -6.6334=T -9.833=T 1.0468=T 0.1687=T 3.533=T 9.08411=T -3.68189=T 7.9229409734=T 12.2428611854=T 0.442707187=T pbc="F F F"
C        1.53353905       1.55850064      -0.43354530
C        0.15362257       1.04485396      -0.08544045
C        1.27389628       0.07320304      -0.35421616
N        1.81125541      -0.65456121       0.77341360
C        3.11380407      -1.23353729       0.53205010
C        4.33290498      -0.43278758       0.92174866
C        3.92646268      -1.64340075       1.73311398
H        1.69247416       2.00133223      -1.41703269
H        2.11745051       1.99490988       0.37618282
H       -0.64085473       1.13265851      -0.82684242
H       -0.16424767       1.14597046       0.95272778
H        1.23640266      -0.45531138      -1.31910413
H        1.15531071      -1.39124623       1.04815601
H        3.22355183      -1.86206138      -0.36496556
H        4.15129861       0.54482087       1.36745583
H        5.21814463      -0.50216633       0.28906782
H        4.53021648      -2.54835254       1.66169258
H        3.47982778      -1.45712488       2.71028754
