13
Properties=species:S:1:pos:R:3 -1355.6421223323614=T 9.96502=T 10.16796=T -8.8054=T -6.7994=T -9.538=T 0.4303=T -1.4895=T -0.467=T 9.06232=T 0.98938=T 3.6434030016=T 11.8583186064=T 0.142455718=T pbc="F F F"
O        1.87990231      -0.44253484      -1.24926769
C        2.10010822       0.13539160      -0.20350782
C        3.12760184       1.23488732      -0.02637846
C        3.75863950       1.29063380       1.37757793
N        3.88357743       2.74994558       1.60255975
N        2.91212704       3.40580984       0.86852472
C        2.47772874       2.61933076      -0.05713463
H        1.50711693      -0.09163387       0.72254684
H        3.86941556       1.14985922      -0.83885442
H        4.73610283       0.79679279       1.43904019
H        3.07171034       0.82783659       2.11420023
H        3.87886846       3.06462663       2.57260874
H        1.78030079       2.96840458      -0.81571536
