12
Properties=species:S:1:pos:R:3 -1311.8869181408274=T 9.115261=T 9.30592=T -8.342=T -6.1402=T -8.64=T 1.6814=T -0.0388=T 1.031=T 8.40978=T -0.73924=T 5.1036109208=T 11.0053941152=T 0.54175655=T pbc="F F F"
C        1.50758059      -0.26690728       0.05290105
C        0.43609055      -1.32457534      -0.00997160
C       -0.86562002      -1.03174551      -0.10469749
O       -1.39176809       0.24711426      -0.15654213
C       -0.45809174       1.26718886      -0.10425143
C        0.86496543       1.09469481      -0.00948469
H        2.10862336      -0.37366503       0.97666627
H        2.23272862      -0.39530109      -0.77390804
H        0.71637571      -2.37812638       0.02145106
H       -1.66152939      -1.77375013      -0.15216005
H       -0.95049061       2.23754935      -0.15142743
H        1.49031559       1.98768348       0.02229448
