17
Properties=species:S:1:pos:R:3 -1680.556148371146=T 10.470774=T 11.91135=T -9.7704=T -7.6433=T -11.546=T 0.8738=T -0.0364=T 2.414=T 10.92345=T -2.11014=T 8.9195652386=T 10.8274370094=T 0.187878715=T pbc="F F F"
C        1.11453786      -0.07340115      -0.14255248
C        2.59879855       0.17886296      -0.13785415
O        3.36791469      -0.30956223      -1.26397541
C        3.30124258       1.13313698      -1.02648561
C        2.59313892       1.94663678      -2.08390261
C        4.64094784       1.68382559      -0.56478105
O        5.61414007       1.65517997      -1.61197437
H        0.62400918       0.55016152       0.62013599
H        0.91212437      -1.12564486       0.10541417
H        0.66065433       0.13981530      -1.11747911
H        3.08301611      -0.02371572       0.82874220
H        1.74166474       1.40519844      -2.51035305
H        3.29464976       2.18522751      -2.89535707
H        2.23277311       2.89578713      -1.65851585
H        4.98830944       1.11121665       0.31420141
H        4.54173619       2.74022968      -0.27071045
H        5.68380226       0.72264545      -1.89045258
