18
Properties=species:S:1:pos:R:3 -1723.502035078424=T 12.154918=T 13.00579=T -9.0402=T -7.0122=T -10.366=T 1.296=T -0.2501=T 0.59=T 9.8581=T 0.04259=T 5.463133125=T 6.4443831262=T 0.233131449=T pbc="F F F"
C        3.92328671      -1.06720115      -0.73794834
C        2.97809982      -0.34436023       0.22317003
C        2.90083491       1.17650799      -0.01828686
C        4.18548551       1.88526990       0.27396989
N        4.78392341       2.54852385      -0.64779584
O        5.97168880       3.14251954      -0.15973797
C        6.59350778       3.85839619      -1.23193074
H        3.93872322      -2.14822544      -0.53982008
H        4.95327806      -0.69260601      -0.64775249
H        3.61153873      -0.92059433      -1.78330879
H        3.28901971      -0.53088116       1.26533466
H        1.96184061      -0.75945718       0.12913665
H        2.11556643       1.59903987       0.63311682
H        2.60986787       1.38699805      -1.05899686
H        4.61287190       1.82719253       1.28728444
H        7.49626439       4.30475606      -0.79700493
H        5.93203886       4.65029118      -1.61575780
H        6.87051326       3.18006035      -2.05384179
