21
Properties=species:S:1:pos:R:3 -1945.0397828681243=T 12.782382=T 14.14281=T -8.5246=T -6.3956=T -10.061=T 0.9282=T 0.0075=T 3.256=T 9.33812=T -2.94129=T 8.1300223906=T 10.95850261=T 0.155481317=T pbc="F F F"
C        1.08455338      -0.09593372       0.21268884
N        2.53908969      -0.06429120       0.07272459
C        3.04815442       1.28864062      -0.14478604
C        4.58126620       1.33982586      -0.20168436
C        5.12906700       0.57229899      -1.40854128
N        4.98561091       2.75350770      -0.26814300
C        6.40530243       2.98397698      -0.00172114
H        0.74693226      -1.13756466       0.30634909
H        0.53345302       0.37569322      -0.62902259
H        0.79487165       0.43143233       1.13521373
H        2.80300772      -0.65087740      -0.72212007
H        2.70995454       1.90264740       0.71022709
H        2.64132828       1.77189103      -1.06162687
H        4.96261402       0.84985385       0.72228874
H        4.72606456       0.99240268      -2.34297940
H        4.87024546      -0.49460164      -1.34962390
H        6.22523279       0.62578698      -1.45535841
H        4.44135874       3.27039180       0.42726156
H        7.01712082       2.63657157      -0.84704417
H        6.78017758       2.48171335       0.91604600
H        6.58113451       4.06369424       0.10005160
