16
Properties=species:S:1:pos:R:3 -1587.509895802129=T 11.267889=T 12.36075=T -9.4492=T -7.2155=T -9.861=T 0.8004=T -0.2567=T 2.226=T 9.49574=T -1.78871=T 4.3725398704=T 10.8238414154=T 0.389129595=T pbc="F F F"
N        1.00064395      -0.05838610       0.15629674
C        2.47292935      -0.01477558       0.00238417
C        2.88710604      -0.76174619      -1.28668767
C        2.30825683      -0.17091571      -2.57278011
O        2.65880363      -0.94801309      -3.72693909
C        2.93142446       1.37795168       0.00216820
C        3.33093320       2.52374367       0.03181373
H        0.72610481       0.50305340       0.96557767
H        0.72026780      -1.02217886       0.35788435
H        3.00389183      -0.51226724       0.84170735
H        2.56305043      -1.81196133      -1.19875237
H        3.98862262      -0.76921200      -1.33912516
H        2.63045989       0.87937337      -2.68518605
H        1.21170977      -0.17631440      -2.52776124
H        3.61913065      -0.86446924      -3.86047790
H        3.67565476       3.53752762       0.05205738
