19
Properties=species:S:1:pos:R:3 -1913.3019947159346=T 12.861612=T 14.11423=T -9.8597=T -7.6078=T -9.798=T 0.8631=T -0.0727=T 2.308=T 9.38731=T -1.94682=T 4.342733636=T 10.4289212082=T 0.698769045=T pbc="F F F"
C        0.80294693       0.26489624       0.01120716
C        2.32091218       0.02095187       0.01424117
C        2.72088482      -0.75118262       1.28156653
C        2.72177732      -0.77719208      -1.23657158
C        3.02316872       1.41348147       0.00005913
C        4.47994416       1.37156183       0.00063983
C        5.69403797       1.33396003       0.00109064
H        0.48930245       0.82176305      -0.88541891
H        0.48870542       0.84018288       0.89592069
H        0.25696284      -0.69017416       0.02090541
H        2.42797173      -0.20231219       2.19004537
H        3.80766043      -0.91323743       1.31899384
H        2.22643020      -1.73376880       1.30699643
H        2.42959622      -0.24715855      -2.15639914
H        2.22725457      -1.76005751      -1.24210237
H        3.80856704      -0.94004920      -1.26982517
H        2.68330295       1.99108949       0.87742789
H        2.68351220       1.97295691      -0.88906143
H        6.76437182       1.30801877       0.00141451
