14
Properties=species:S:1:pos:R:3 -1410.2255256750898=T 12.237229=T 11.9682=T -8.5261=T -6.6774=T -8.81=T 0.3341=T -1.3039=T -0.616=T 8.07303=T 1.04921=T 4.2633082044=T 0.384008388=T pbc="F F F"
C        1.01193013       0.00988842       0.00630682
N        2.46092219      -0.13974928       0.01184913
C        3.04183748      -1.47227625       0.04966816
N        3.15859840       0.93463858      -0.31824390
C        4.45016518       0.84801281      -0.52347558
C        5.17151181       2.03046108      -0.83414190
N        5.82979377       2.96386780      -1.09587709
H        0.78808717       1.08021947       0.04685464
H        0.57588907      -0.49005127       0.88270205
H        0.56437570      -0.41628375      -0.90791208
H        2.27001658      -2.18667146       0.35388180
H        3.86710917      -1.51416902       0.77826910
H        3.43375589      -1.76831177      -0.94016800
H        5.03176748      -0.07825537      -0.46798316
