17
Properties=species:S:1:pos:R:3 -1618.631547938399=T 11.380707=T 11.86647=T -8.9438=T -6.8826=T -9.478=T 1.2407=T -0.4139=T 0.559=T 9.04076=T 0.0501=T 4.7854132504=T 5.638139364=T 0.198037921=T pbc="F F F"
C        3.95668000      -1.23085492      -1.14738978
C        3.27447235      -0.45165558      -0.01785668
O        3.72025429      -0.88419355       1.27213135
C        3.40774415       1.07673759      -0.17861802
C        4.79580635       1.63643291      -0.02366754
N        5.70993615       1.01458897       0.63240000
N        6.97847972       1.55287802       0.68381842
H        3.51865911      -0.97709783      -2.12508679
H        3.82397223      -2.30774892      -0.97808655
H        5.03433693      -1.01804410      -1.18427916
H        2.19612969      -0.68507842      -0.03951442
H        4.63226942      -0.52730043       1.35236308
H        2.75027279       1.56559297       0.56371535
H        3.01853884       1.37558141      -1.16655274
H        5.00322278       2.62633965      -0.47371405
H        7.43952840       1.26412764       1.54473708
H        7.00784683       2.57460460       0.57236045
