15
Properties=species:S:1:pos:R:3 -1484.4464728338628=T 9.64447=T 10.51033=T -9.2318=T -7.2498=T -10.494=T 0.7343=T -0.2394=T 0.611=T 9.54513=T 0.03754=T 4.3560373338=T 12.4050348734=T 0.201713425=T pbc="F F F"
C        2.57916796      -1.01612331       1.31195336
C        3.00341898      -0.38253817      -0.01329903
N        3.34915806       1.02842789       0.11055454
C        4.64686297       1.47923509       0.08624450
C        4.81673438       2.97651603       0.28735229
O        5.61104310       0.73307327      -0.08945075
H        2.33243972      -2.07763009       1.16545181
H        1.69079273      -0.52023493       1.73102539
H        3.39115049      -0.95025915       2.04900613
H        2.20596565      -0.48885036      -0.76596629
H        3.90393806      -0.87528285      -0.40428162
H        2.60943221       1.69667750       0.30312790
H        3.87021823       3.52983573       0.35265050
H        5.41017982       3.37501917      -0.54548823
H        5.39221764       3.14331419       1.20798949
