13
Properties=species:S:1:pos:R:3 -1271.0080677377125=T 8.7596=T 9.09197=T -8.5291=T -6.407=T -9.096=T 0.9015=T -0.0399=T 1.348=T 8.56827=T -0.80818=T 6.1997711468=T 0.347622041=T pbc="F F F"
C        1.14438864       0.17892943      -0.80066498
O        2.37274679       0.14075963      -0.07026374
C        3.10885089       1.30918438       0.01506545
C        2.36651600       2.61534931       0.01169758
C        4.43857226       1.20100920       0.17045074
H        0.74169904      -0.83982872      -0.75558064
H        1.30990421       0.45180482      -1.85658613
H        0.41172344       0.87029964      -0.35478463
H        1.60113223       2.64014639       0.80330278
H        1.85754209       2.80348415      -0.94575955
H        3.06942530       3.43785626       0.18631414
H        4.92197910       0.22509030       0.16544259
H        5.04702000       2.08810520       0.33014640
