19
Properties=species:S:1:pos:R:3 -1867.303421499322=T 12.784179=T 14.03666=T -9.0244=T -6.8683=T -8.832=T 0.8827=T -0.0026=T 1.462=T 8.23508=T -0.78732=T 6.122552666=T 0.395344702=T pbc="F F F"
C        0.90518043       0.58478326       1.13768749
O        2.31610287       0.73200496       1.15823469
C        2.78073759       1.49512989       0.03663940
C        4.27440594       1.52841298       0.05483529
C        5.07620223       2.61051570       0.04983713
C        4.60046437       4.03921106       0.05155822
C        6.57433163       2.45082894       0.03282285
H        0.62992530      -0.01823029       2.01232522
H        0.56083936       0.06878794       0.22004595
H        0.39014104       1.56349468       1.19904736
H        2.33632979       2.50831030       0.06007916
H        2.42735340       1.00887994      -0.89889967
H        4.74453271       0.53916830       0.06364233
H        3.51285869       4.13718436       0.14605572
H        4.90850051       4.55199843      -0.87489805
H        5.06733928       4.59328109       0.88210279
H        6.87320273       1.39461543       0.03988443
H        7.03111845       2.94703367       0.90501556
H        7.01160368       2.92731935      -0.86047588
