23
Properties=species:S:1:pos:R:3 -2210.6884564119046=T 13.273326=T 14.73059=T -10.7616=T -8.467=T -12.188=T 0.8891=T -0.0105=T 2.816=T 11.91335=T -2.46206=T 10.2850230566=T 0.154547741=T pbc="F F F"
C        2.63738063      -0.83741102      -1.20144887
C        2.26463698       0.10555780      -0.05344892
C        2.91447073       1.51419638      -0.07113291
C        2.46995674       2.28677340      -1.32740667
C        2.42183931       2.28352459       1.16895613
C        4.46385726       1.44025254      -0.07462617
C        5.11909217       0.71228434       1.10296962
H        2.10529197      -1.79445772      -1.09955775
H        3.71397818      -1.06344292      -1.21782352
H        2.36916522      -0.41917127      -2.18266115
H        2.50649295      -0.38248261       0.90601585
H        1.16923293       0.24588015      -0.04531721
H        2.85474003       1.82639927      -2.24954279
H        2.83998112       3.32340910      -1.29708436
H        1.37144739       2.32464709      -1.39936072
H        2.65127623       1.74698193       2.10155640
H        1.33064435       2.42570823       1.12995622
H        2.88817163       3.27977658       1.22654702
H        4.84652813       2.47544193      -0.11435622
H        4.79072786       0.96864046      -1.01692124
H        4.89050486       1.19481549       2.06448603
H        6.21321249       0.71026486       0.99188213
H        4.79679084      -0.33746859       1.17134910
