22
Properties=species:S:1:pos:R:3 -2073.785731195911=T 13.239369=T 14.48853=T -8.1986=T -6.2231=T -9.655=T 0.9042=T -0.0008=T 3.147=T 8.86013=T -2.83556=T 7.6823461404=T 11.1000078318=T 0.174086043=T pbc="F F F"
C        1.92225376      -1.35067288       0.26853334
C        3.17207450      -0.75505891      -0.39086812
C        2.89229587      -0.32786981      -1.83499393
C        3.69251078       0.41698732       0.45812794
N        4.89561014       1.07194719      -0.06477043
C        5.14278980       2.32838023       0.63505055
C        6.07120035       0.21035076       0.01208028
H        2.12212092      -1.67249308       1.30185265
H        1.55927386      -2.22426673      -0.29249815
H        1.10460337      -0.61195183       0.29807426
H        3.94455413      -1.54484893      -0.40513611
H        2.08206849       0.41903866      -1.86689301
H        2.58077199      -1.18652753      -2.44786074
H        3.78068543       0.12889888      -2.29109149
H        3.85503307       0.06185267       1.50494306
H        2.89914325       1.18386588       0.50550855
H        4.27310208       2.99247529       0.52663046
H        6.01577911       2.83226162       0.19483893
H        5.33917941       2.19008154       1.72339456
H        5.92678852      -0.69596818      -0.59125651
H        6.30962151      -0.10135349       1.05555730
H        6.94289965       0.74490135      -0.39190339
