16
Properties=species:S:1:pos:R:3 -1612.4813804392486=T 10.38187=T 11.29322=T -8.8983=T -6.6771=T -10.288=T 0.8155=T -0.1506=T 3.111=T 9.79936=T -3.00571=T 8.310595601=T 10.7572981292=T 0.203199764=T pbc="F F F"
N        0.78715176       0.00499622      -0.02911135
C        2.21582064       0.01947358       0.16300741
C        3.09972860      -0.85316662      -0.70623479
C        2.51904630      -1.42531327      -1.98463750
O        2.03662926      -0.33258172      -2.77937014
C        2.53345225       0.91127191      -2.26517992
C        3.10880481       0.65110540      -0.88672224
H        0.36878564       0.87566365       0.30396357
H        0.35927534      -0.75847993       0.49819030
H        2.60218755       0.13990933       1.18563455
H        3.93826279      -1.37492700      -0.24307180
H        3.30706299      -1.98341745      -2.52644078
H        1.66559053      -2.10329742      -1.81492893
H        3.32752917       1.31548276      -2.92247178
H        1.68860082       1.62052689      -2.26231483
H        3.95419156       1.25759365      -0.55899179
