13
Properties=species:S:1:pos:R:3 -1388.025108603719=T 10.093654=T 10.5053=T -8.542=T -6.5319=T -8.196=T 0.693=T -0.4403=T 0.816=T 7.74396=T -0.13788=T 4.656852167=T 12.5373775298=T 0.274733991=T pbc="F F F"
O        2.87751218      -0.64723863      -1.21512367
C        2.28841781       0.00531390      -0.07136533
C        2.77680434       1.40895110      -0.01930914
C        2.15152684       2.61414122       0.23379231
N        3.05881466       3.65363870       0.23328851
C        4.22690124       3.09085249      -0.02918308
N        4.11365094       1.73228579      -0.17296681
H        2.64180839      -1.58973570      -1.17075130
H        2.56719515      -0.53779728       0.85268959
H        1.18621940       0.02087237      -0.13251192
H        1.09450593       2.78344774       0.42273720
H        5.17638797       3.60871658      -0.13417394
H        4.83488515       1.08162171      -0.47164242
