17
Properties=species:S:1:pos:R:3 -1736.337106847803=T 10.752783=T 11.88869=T -9.1013=T -6.9657=T -10.725=T 0.9207=T 0.0204=T 2.883=T 10.36601=T -2.55639=T 8.6239826146=T 10.674450684=T 0.145339294=T pbc="F F F"
C        1.00998202       0.07562597       0.18836633
C        2.50763061      -0.06745387      -0.10226642
C        2.91001296      -1.46355678      -0.63732150
O        3.03080140      -1.35004867      -2.07197839
C        3.44087118      -0.02061834      -2.35527753
C        2.32307976       0.97146581      -2.52486273
C        3.06001282       0.86032097      -1.19709666
H        0.75608700       1.11050960       0.46010817
H        0.71180557      -0.57520245       1.02355839
H        0.40104602      -0.20294200      -0.68391913
H        3.06393727       0.13664257       0.82715818
H        2.16092913      -2.24317129      -0.43296217
H        3.87948401      -1.78173068      -0.20863947
H        4.38303034       0.06459678      -2.90296482
H        2.51159535       1.86626715      -3.12072020
H        1.31626841       0.56154236      -2.60881120
H        3.69679617       1.69353287      -0.89824084
