15
Properties=species:S:1:pos:R:3 -1571.6742777449945=T 9.85516=T 11.09072=T -10.1537=T -8.0678=T -11.247=T 0.915=T -0.3073=T 0.166=T 10.35338=T 0.49596=T 4.3572275994=T 11.7361799978=T 0.129428008=T pbc="F F F"
C        2.49271453      -0.56905793      -1.53658453
C        2.46270299       0.01696489      -0.12339051
C        3.20541425       1.34713288      -0.01641233
C        2.54007474       2.62305325      -0.56405090
O        2.53221360       3.22074755       0.79159721
C        3.11107355       2.07788543       1.32831493
O        3.37801349       1.86456265       2.47894498
H        1.95263358      -1.52512285      -1.57706944
H        3.52534939      -0.75314998      -1.86933274
H        2.02244494       0.10733369      -2.26630975
H        2.91889328      -0.68767166       0.58919900
H        1.42005809       0.15797639       0.20694462
H        4.25479174       1.23624104      -0.33201221
H        1.51067884       2.50513715      -0.92863064
H        3.13377299       3.24284749      -1.24713768
