10
Properties=species:S:1:pos:R:3 -889.7595853842677=T 5.760087=T 5.92003=T -9.3504=T -6.9276=T -10.641=T 1.0384=T -0.0011=T 3.6=T 10.04543=T -3.37275=T 8.813420824=T 16.505574257=T 0.369474881=T pbc="F F F"
C        0.99851568      -0.00462126       0.00528468
C        2.52332056       0.01617598      -0.01385443
N        3.01772873       1.40240938       0.03161740
H        0.61728676      -1.03560805       0.01853973
H        0.58694446       0.49012320      -0.88884712
H        0.61763227       0.52532798       0.88954162
H        2.88460715      -0.55996332      -0.89060400
H        2.90788005      -0.50009589       0.88078080
H        2.72754636       1.89770018      -0.81671631
H        4.04047798       1.41093181       0.02678764
