19
Properties=species:S:1:pos:R:3 -1811.495494427775=T 12.014395=T 13.09507=T -8.544=T -6.4374=T -9.793=T 0.8159=T -0.137=T 2.934=T 9.3525=T -2.56796=T 7.8793350972=T 11.1724528516=T 0.154769649=T pbc="F F F"
C        0.80856425       0.24493666      -0.34843127
C        2.26280766       0.13877960       0.06954125
C        2.51505522       0.23461292       1.56137979
N        2.12490250      -0.99882276       2.26977925
C        3.16381622      -0.77801524      -0.74006386
C        3.31054612       0.70896552      -0.89989793
N        4.55230078       1.35584228      -0.54131378
H        0.71025753       0.23435441      -1.44408552
H        0.35439868       1.17932116       0.02018164
H        0.20771885      -0.59761769       0.03264352
H        2.00122786       1.14485855       1.93903788
H        3.59106181       0.38855720       1.74380021
H        1.11764867      -1.15021211       2.17040739
H        2.28980956      -0.88330089       3.27278116
H        2.73148801      -1.36015291      -1.55546705
H        3.94456652      -1.30191210      -0.18395699
H        2.88007688       1.13203889      -1.81402904
H        5.08911865       0.79370172       0.12014007
H        4.38627423       2.26736482      -0.10754670
