18
Properties=species:S:1:pos:R:3 -1816.5860343600052=T 12.129367=T 12.95832=T -8.4618=T -6.3193=T -8.558=T 0.8803=T -0.0566=T 1.519=T 8.05397=T -0.83293=T 5.8388355022=T 0.282388158=T pbc="F F F"
C        0.93950168       0.10749324      -0.01598532
C        2.46832510      -0.01952044       0.07898898
N        2.86639022      -1.28014222       0.76647838
C        3.51287867      -0.92031057       2.05393215
C        3.66848380       0.57456343       2.00496003
C        3.10175277       1.09099351       0.90469221
C        3.02541288       2.52917387       0.50199907
H        0.52621529      -0.74389157      -0.57351415
H        0.64141584       1.03411083      -0.52957580
H        0.49412611       0.10574467       0.98983845
H        2.87399455      -0.01112819      -0.95141463
H        3.54523616      -1.77020199       0.18567480
H        4.47658720      -1.44489009       2.17457763
H        2.88477975      -1.22816843       2.91309040
H        4.14966809       1.15148016       2.79711767
H        3.47593477       2.68648296      -0.49187499
H        3.54757433       3.17658099       1.21905016
H        1.98125280       2.87380985       0.43146498
