15
Properties=species:S:1:pos:R:3 -1576.0730608243437=T 10.831795=T 11.54213=T -9.6984=T -7.6588=T -9.864=T 0.4295=T -1.2138=T -0.394=T 9.27104=T 0.97653=T 4.1606973908=T 5.2748851812=T 0.330027101=T pbc="F F F"
C        0.97384075       0.00013693      -0.14637820
C        2.47025664      -0.10173796      -0.02570015
C        2.99109879      -1.49947037       0.18377567
C        3.23110940       1.01495515      -0.05955278
C        4.70267737       1.12824084       0.12402229
O        5.49608069       0.23244812      -0.55885817
O        5.21998206       1.98036366       0.81671008
H        0.64239078       1.02861918      -0.33439651
H        0.48535877      -0.36114339       0.77299171
H        0.60790120      -0.64036407      -0.96518156
H        2.43435243      -1.97937178       1.00387331
H        4.05663844      -1.54014867       0.43615944
H        2.81088211      -2.12211676      -0.70828319
H        2.73882190       1.98895058      -0.11200296
H        4.92466867      -0.28610146      -1.15701898
