17
Properties=species:S:1:pos:R:3 -1808.042181963186=T 12.432058=T 12.91961=T -8.8852=T -6.6668=T -8.545=T 0.9039=T -0.0118=T 1.319=T 8.31932=T -0.97086=T 5.4743166622=T 6.8963988864=T 0.549173043=T pbc="F F F"
C        0.92016848      -0.00196752      -0.30716189
C        2.44003057       0.00053243      -0.03305445
C        2.86310326       1.25532181       0.68750573
C        3.51000772       1.26862749       1.86028950
C        3.91073317       0.02329837       2.59843684
C        3.50979868      -1.23461967       1.88207192
C        2.86304307      -1.24162322       0.70914759
H        0.62561238      -0.89545127      -0.87753609
H        0.62464749       0.88416649      -0.88843423
H        0.35902157       0.00356890       0.63843119
H        2.93645937      -0.00800804      -1.02571548
H        2.60235677       2.20307846       0.20568670
H        3.77275984       2.22541659       2.32066874
H        5.00412542       0.02473987       2.77468772
H        3.47440060       0.03221544       3.61634712
H        3.77224052      -2.18325585       2.35919011
H        2.60207108      -2.19758029       0.24394901
