15
Properties=species:S:1:pos:R:3 -1542.5761460632123=T 9.942581=T 11.22384=T -9.7948=T -7.5732=T -11.085=T 1.1373=T -0.9305=T -0.105=T 10.1853=T 0.73357=T 3.6946092196=T 11.5096575758=T 0.17982806=T pbc="F F F"
O        4.31867953       1.19262098       2.26803498
C        3.28744773       1.59808403       1.76187310
C        3.09793935       1.89894254       0.29627106
C        4.34532839       1.72929855      -0.57427837
C        5.36144352       2.82303189      -0.34646531
C        6.13516484       3.40853221      -1.45259017
O        5.02108813       4.12605497      -0.88394551
H        2.37441491       1.76653558       2.39103123
H        2.69146203       2.92334006       0.21378297
H        2.27493659       1.24567831      -0.04787816
H        4.05130579       1.73092321      -1.63439067
H        4.81686279       0.75764505      -0.35604303
H        5.79912085       2.86286477       0.65762286
H        5.97642905       3.03500139      -2.47061641
H        7.12007649       3.84489645      -1.25570858
