14
Properties=species:S:1:pos:R:3 -1488.1008337523663=T 10.39486=T 11.19689=T -9.0313=T -7.035=T -8.958=T 1.1513=T -0.4878=T -0.088=T 8.33683=T 0.69057=T 4.5589900172=T 6.6882759868=T 0.343157917=T pbc="F F F"
C        0.93487374      -0.13492771      -0.00312661
C        2.40952533       0.05283573      -0.00362175
C        3.21715048       1.16477619      -0.00107475
C        2.82692164       2.61219548       0.00286505
C        4.52802227       0.60659968      -0.00405721
N        4.53464480      -0.71208761      -0.00805515
O        3.17134793      -1.07375840      -0.00776107
H        0.43073383       0.83847250       0.02227884
H        0.61064970      -0.71762624       0.87143508
H        0.60363339      -0.67413507      -0.90281620
H        3.71806129       3.25302093       0.01143779
H        2.22740883       2.87265415       0.88775462
H        2.23882416       2.88051509      -0.88734553
H        5.48195262       1.13207528      -0.00306311
