13
Properties=species:S:1:pos:R:3 -1367.1051721890776=T 10.248779=T 10.05631=T -8.8424=T -6.9841=T -9.554=T -0.138=T -1.9221=T -1.264=T 8.94749=T 1.67913=T 3.1228477806=T 4.0819662808=T 0.170572843=T pbc="F F F"
O        0.91708823      -0.10431231      -0.35177975
C        2.12486506      -0.01321416      -0.13503637
C        2.80497118       1.30609741       0.22245712
C        4.26899429       1.26030476      -0.20153232
N        4.88296347       0.05033377       0.34553826
N        4.29689249      -1.14143681       0.17945933
C        3.01606478      -1.17972143      -0.10436530
H        2.26868791       2.13744280      -0.25226548
H        2.72262733       1.43219449       1.31602976
H        4.83296948       2.13335948       0.15421206
H        4.33281998       1.23148534      -1.30837098
H        5.89715402      -0.02010032       0.32033409
H        2.57539178      -2.17135303      -0.22221041
