17
Properties=species:S:1:pos:R:3 -1603.9641700657924=T 11.410933=T 11.99678=T -7.7974=T -5.9561=T -9.377=T 0.8777=T -0.0739=T 0.826=T 8.61974=T -0.15749=T 5.4590291884=T 12.757415484=T 0.150977087=T pbc="F F F"
C        0.99564300      -0.07261469      -0.06226100
N        2.42059374      -0.01529734       0.25836358
C        3.17225173      -1.15475022      -0.25832011
C        3.05015787       1.23207850       0.19582478
C        2.34032524       2.41907089       0.78625302
N        4.24686141       1.26703303      -0.31098310
O        4.82344009       2.57548232      -0.17838032
H        0.80726436      -0.03426135      -1.15383829
H        0.45613846       0.75602118       0.40945476
H        0.58043285      -1.01336426       0.32562229
H        2.64676217      -2.07510781       0.03070688
H        4.18014381      -1.15339051       0.17204062
H        3.27625681      -1.13047947      -1.35971247
H        1.67098746       2.11482009       1.59976598
H        1.75280572       2.95601350       0.02593585
H        3.08499203       3.12232350       1.17665306
H        5.71131322       2.41570263      -0.54012553
