19
Properties=species:S:1:pos:R:3 -1886.2119996792183=T 11.39867=T 12.56991=T -9.3064=T -7.1118=T -11.335=T 0.8691=T -0.0623=T 2.759=T 10.65796=T -2.43932=T 9.1870402364=T 10.7997137398=T 0.151312426=T pbc="F F F"
C        0.94610453      -0.01539754       0.02119413
C        2.47513028       0.01775966      -0.03551899
C        2.96236534       0.12140287      -1.49037959
C        3.08412777       1.14656926       0.83184444
C        4.47968003       0.61684832       1.20086306
O        4.45972122      -0.81283712       0.98133576
C        3.11840212      -1.19715013       0.65750729
H        0.58652160      -0.09543322       1.05830764
H        0.54647148      -0.87154392      -0.54401901
H        0.51556526       0.89761066      -0.41696894
H        4.05954573       0.08399494      -1.54784292
H        2.62558880       1.06272921      -1.95068008
H        2.56625809      -0.70898233      -2.09461600
H        2.47218415       1.28643982       1.73643367
H        3.12478894       2.10883295       0.30146526
H        5.27385644       1.04222440       0.56508993
H        4.73712217       0.82391595       2.25359011
H        3.17312404      -2.08983497       0.01553458
H        2.55286199      -1.45775881       1.57576966
