17
Properties=species:S:1:pos:R:3 -1618.8492479089625=T 10.637733=T 11.77082=T -9.3333=T -7.1136=T -10.796=T 0.7086=T -0.3067=T 2.874=T 10.26963=T -2.61641=T 8.52837701=T 13.2270372562=T 0.155332931=T pbc="F F F"
N        0.94196361       0.68495045      -0.56015988
C        2.33662628       0.24541898      -0.39901616
C        3.24854022       1.38373591       0.02953155
N        3.04456887       2.72907973      -0.55326209
C        2.77020374       2.49579972       0.88775141
C        3.70758729       3.25650584       1.81259549
O        4.97240264       3.47550424       1.20213763
H        0.43175447       0.60563598       0.32131943
H        0.45693463       0.08679273      -1.22883135
H        2.68796528      -0.11865926      -1.37826373
H        2.46279975      -0.59426598       0.31119423
H        4.30388467       1.10534827       0.11705034
H        2.14505350       2.70950327      -1.05281107
H        1.71754307       2.48284142       1.18972756
H        3.87673882       2.69150340       2.74385272
H        3.22909661       4.21876743       2.08675615
H        4.75456655       3.61336787       0.25224776
