18
Properties=species:S:1:pos:R:3 -1793.4440358828695=T 11.987975=T 12.93465=T -8.1415=T -6.1832=T -9.28=T 1.0527=T 0.1785=T 3.055=T 8.4655=T -2.74484=T 7.3756915666=T 12.4316546676=T 0.156617656=T pbc="F F F"
C       -1.81187132       0.79543792       0.17602676
C       -1.70756640      -0.67937066      -0.33788864
N       -0.27465440      -0.59822095       0.02223148
C        0.98133740      -1.05846789      -0.53266863
C        1.93310895       0.07922673       0.00038293
C        1.01157094       1.26718137       0.48020478
C       -0.29515657       0.84143989      -0.17515402
H       -2.47686145       1.47817062      -0.36651600
H       -2.00153129       0.83336829       1.25661022
H       -1.89433772      -0.73450870      -1.43211416
H       -2.27843156      -1.46380184       0.17935222
H        1.26874131      -2.05534599      -0.16648732
H        0.98581768      -1.07500831      -1.64523046
H        2.55264073      -0.28862575       0.82869617
H        2.61263549       0.40919387      -0.79767475
H        0.92016742       1.26947924       1.57538618
H        1.39442300       2.24286325       0.14966598
H       -0.23315222       1.09503890      -1.26714272
