17
Properties=species:S:1:pos:R:3 -1643.9305435691308=T 11.222571=T 12.01031=T -9.295=T -7.0057=T -9.164=T 0.9118=T -0.0399=T 1.432=T 8.55191=T -0.8052=T 6.3983471244=T 0.41177968=T pbc="F F F"
C        3.69158381      -1.69533319       1.22014810
C        3.24074469      -0.89281432       0.02662005
C        2.61337071      -1.46622379      -1.01235354
C        3.51490672       0.59322609       0.06184569
C        5.00613715       0.96101467       0.01644313
N        5.16568502       2.42170767       0.08988247
H        4.78596710      -1.66196479       1.34175125
H        3.39380130      -2.74844264       1.13259094
H        3.26058136      -1.28851892       2.14961978
H        2.40742977      -2.53849175      -1.03461108
H        2.28088280      -0.87818109      -1.87049402
H        3.08950522       1.03301206       0.98108873
H        3.00514797       1.07541649      -0.78888670
H        5.45720215       0.49731186      -0.88458349
H        5.52161072       0.53052230       0.88964992
H        4.78255209       2.85256705      -0.75637917
H        6.15908143       2.66282228       0.10465795
