16
Properties=species:S:1:pos:R:3 -1596.6746212058515=T 11.183222=T 12.12231=T -9.1048=T -6.9652=T -9.198=T 0.9819=T -0.291=T 1.325=T 8.5962=T -0.68517=T 6.3448843612=T 0.410322519=T pbc="F F F"
O        2.39914289      -0.48472657       1.52577557
C        2.21481088      -0.06166398       0.15995234
C        2.83733644       1.29822617      -0.02134305
C        2.13396951       2.34532408      -0.47397471
C        4.29499108       1.38189141       0.29202686
C        5.32994583       1.41440949      -0.79182884
N        4.99625895       2.63772295      -0.03521875
H        2.13157523      -1.41705960       1.58424983
H        1.14268183      -0.01457419      -0.09996135
H        2.70478713      -0.77992145      -0.52681086
H        1.07109447       2.25351634      -0.70352962
H        2.62032938       3.30957922      -0.62775370
H        4.58640892       0.85455036       1.20563479
H        4.99770470       1.42665787      -1.83288893
H        6.28547369       0.91556795      -0.60838601
H        5.71661909       2.81615995       0.67060643
