17
Properties=species:S:1:pos:R:3 -1692.4358228904457=T 13.296015=T 13.27312=T -7.8858=T -6.0107=T -8.243=T 0.6678=T -0.2644=T 0.726=T 7.71624=T -0.14562=T 4.949149162=T 4.9878203954=T 0.406180135=T pbc="F F F"
C        0.96887928      -0.01046342      -0.11698830
C        2.46358691      -0.14544900      -0.02103594
C        2.99066244      -1.55384240      -0.00230094
C        3.24075588       0.95709870       0.04064829
N        4.63199472       0.98758146       0.13067325
C        5.42591878       2.12600347       0.19277499
N        5.10861068       3.37021697       0.18351520
H        0.65164052       1.04099667      -0.12941682
H        0.46820934      -0.50584917       0.73232063
H        0.58271237      -0.49183786      -1.03162057
H        2.55840529      -2.12057848       0.83911762
H        4.08316893      -1.62612192       0.08709831
H        2.70344982      -2.09082624      -0.92180995
H        2.77658699       1.94401716       0.02115593
H        5.12341738       0.09925977       0.15248167
H        6.49111379       1.86445774       0.25964148
H        4.09236686       3.51671654       0.11847515
