14
Properties=species:S:1:pos:R:3 -1339.9400452608709=T 8.769891=T 9.5438=T -9.2675=T -6.9125=T -10.613=T 1.0152=T 0.0386=T 3.341=T 10.0058=T -3.01612=T 8.7057885774=T 11.3787903528=T 0.225170811=T pbc="F F F"
N        3.03947341      -1.03115940      -0.53467911
C        2.38870750       0.08994683       0.16842666
C        3.27346757       1.31452848       0.18907544
C        3.39237232       2.17695436      -1.04217402
C        2.65160092       2.69219189       0.17073649
H        2.44299096      -1.86073562      -0.48386598
H        3.90639339      -1.28014261      -0.04985755
H        2.08861688      -0.14897435       1.21008710
H        1.46186861       0.33254192      -0.37851666
H        4.18021869       1.21201809       0.79403770
H        2.80680620       1.87605151      -1.91193131
H        4.36253944       2.61430847      -1.27900772
H        3.11711690       3.47697904       0.76766178
H        1.56321719       2.75440138       0.11513719
