14
Properties=species:S:1:pos:R:3 -1419.9296530695326=T 9.768755=T 10.58769=T -8.0146=T -5.8544=T -9.067=T 0.9631=T -0.0511=T 1.029=T 8.74769=T -0.55885=T 5.682216387=T 0.183349567=T pbc="F F F"
N        3.04394389      -1.04860729      -0.52515375
C        2.39898310       0.09355056       0.12878268
C        3.21331931       1.35875607      -0.09078024
O        3.07879181       1.86760450      -1.43489788
C        3.02893534       3.24708733      -1.26852692
C        2.84504179       3.56225032       0.01746961
O        2.75671398       2.40670290       0.79245759
H        2.37806044      -1.81436668      -0.63190970
H        3.80936985      -1.40551591       0.05085940
H        2.25388375      -0.00929511       1.22167933
H        1.40897297       0.25578643      -0.32146949
H        4.29709149       1.18723386       0.10026888
H        3.08773362       3.85681552      -2.16233561
H        2.70694867       4.51096751       0.52164609
