16
Properties=species:S:1:pos:R:3 -1674.8879684970336=T 11.438948=T 12.06093=T -8.5963=T -6.4665=T -8.755=T 0.951=T -0.0282=T 1.355=T 8.29838=T -0.7231=T 5.8169767704=T 0.234432822=T pbc="F F F"
N        1.62253842       0.56836790       0.97838210
C        2.69626678       0.03283656       0.17744304
C        3.42824394       1.01649698      -0.69911647
C        4.14481386       0.41110127       0.50186050
C        4.95083639      -0.80599910       0.21497497
C        4.18689653      -1.81559145      -0.24072006
C        2.72353617      -1.44069548      -0.26917266
H        0.76040781       0.62736165       0.42944103
H        1.43049108      -0.04559938       1.77483150
H        3.11075144       2.05511276      -0.59978467
H        3.75638382       0.70408968      -1.69254849
H        4.37735548       1.06612206       1.34261491
H        6.03403938      -0.84599245       0.34092995
H        4.55693825      -2.79272916      -0.55419614
H        2.26980957      -1.57856709      -1.26562982
H        2.13684107      -2.06805475       0.42855030
