20
Properties=species:S:1:pos:R:3 -1886.0057000607408=T 11.687759=T 12.90342=T -9.0013=T -6.9016=T -10.104=T 0.8076=T -0.1446=T 2.868=T 9.34617=T -2.56139=T 7.8909525854=T 10.8318013166=T 0.121523128=T pbc="F F F"
C        2.38637908      -1.00926477       1.61342307
C        2.21262580      -0.11645583       0.38040275
C        2.91062496       1.25979802       0.44456120
C        2.29697996       2.20886897       1.48639312
O        2.98157539       3.45599343       1.49157469
N        4.36489684       1.24228119       0.69064031
C        5.17706959       0.72465083      -0.41103035
H        1.87016396      -1.96887534       1.46956399
H        1.97567437      -0.54924257       2.52338164
H        3.44539238      -1.24361494       1.80446346
H        1.13831182       0.05819656       0.20017211
H        2.57781013      -0.65569386      -0.50891369
H        2.78322813       1.74813161      -0.53836136
H        2.32949966       1.74089916       2.49201318
H        1.24018749       2.40170233       1.24418734
H        3.91276381       3.19518387       1.30503266
H        4.55756648       0.70635673       1.54201752
H        5.03868422       1.36757258      -1.29297811
H        4.94506887      -0.31610916      -0.71004838
H        6.23870706       0.76907120      -0.13108514
