15
Properties=species:S:1:pos:R:3 -1499.9290079598127=T 13.751074=T 13.23764=T -7.7764=T -5.9524=T -8.161=T 0.7015=T -0.8313=T 0.079=T 7.56213=T 0.45172=T 3.9816740054=T 4.1697359702=T 0.320972263=T pbc="F F F"
C        1.01491021       0.02072065       0.00012458
N        2.46047077      -0.10876816       0.12398402
C        3.02848702      -1.44737302       0.09560448
N        3.14830944       0.96146562      -0.29771036
C        4.42658186       0.85969438      -0.56050516
C        5.16505665       2.00560712      -0.93985633
C        5.87487488       2.93672560      -1.27844663
H        0.76068076       1.07876261       0.12306447
H        0.51976679      -0.56853060       0.78424079
H        0.64996403      -0.31967759      -0.98650000
H        2.28260341      -2.15416357       0.47638326
H        3.91752052      -1.50266725       0.74187188
H        3.32078223      -1.75064743      -0.92825409
H        4.98409801      -0.08343090      -0.49464081
H        6.47700343       3.77223254      -1.57016010
