16
Properties=species:S:1:pos:R:3 -1635.386722945427=T 11.498904=T 12.07502=T -9.3966=T -7.3427=T -9.483=T 1.3615=T -0.2419=T 0.268=T 9.94006=T 0.31536=T 4.3278925118=T 6.113377702=T 0.341014005=T pbc="F F F"
C        0.66152514      -0.00764671      -0.27446448
C        1.85681785      -0.85530305       0.06285709
C        1.75822928      -2.09028688       0.57806655
C        3.21492767      -0.23461552      -0.18823533
N        3.44982461       0.05814525      -1.60219749
C        3.63566352       1.32101700      -2.09095280
O        3.63522770       2.35047680      -1.42443781
H        0.66273499       0.91877203       0.32189990
H       -0.27772663      -0.54334463      -0.08814321
H        0.68123202       0.30582749      -1.32960895
H        0.78837721      -2.54654610       0.78540006
H        2.64629002      -2.67783434       0.82086143
H        4.01016505      -0.89511201       0.19034154
H        3.30022254       0.73516874       0.32659252
H        3.45273727      -0.71409753      -2.26401950
H        3.79477176       1.31385946      -3.19431951
