17
Properties=species:S:1:pos:R:3 -1629.842602572752=T 11.249754=T 12.32589=T -9.6226=T -7.4797=T -10.722=T 0.724=T -0.2434=T 0.336=T 10.02706=T 0.21367=T 4.354140348=T 6.2989103524=T 0.220871136=T pbc="F F F"
C        0.99014343      -0.35245738      -0.01850526
C        2.49005557      -0.06662295       0.07077289
C        2.80751190       1.42091037      -0.05839102
N        4.25648579       1.65002821       0.06069978
N        4.62039079       2.98827327      -0.14465680
C        5.12199680       3.74356190       0.88580279
O        5.35413352       4.94267423       0.80860393
H        0.78691312      -1.42836362       0.06990204
H        0.57224509      -0.01174634      -0.97775555
H        0.43912575       0.15781123       0.78557081
H        3.01848552      -0.62198835      -0.72413354
H        2.89277231      -0.43245592       1.02843102
H        2.31713311       1.98699707       0.74976308
H        2.40306075       1.80810677      -1.01819821
H        4.75975820       1.06746399      -0.61554255
H        4.32396051       3.48508362      -0.99227245
H        5.30526783       3.11592390       1.78680904
