13
Properties=species:S:1:pos:R:3 -1409.9611325575704=T 11.26168=T 12.37547=T -10.3112=T -7.9572=T -9.623=T 1.1394=T -0.389=T 1.673=T 9.29862=T -1.36916=T 4.3464036216=T 10.593115868=T 0.906804769=T pbc="F F F"
C        0.95338951      -0.02571126      -0.00740516
C        2.49985970      -0.02624761       0.02640484
O        2.97277170      -0.69530991       1.22345953
C        3.02491933      -0.78365133      -1.12213650
C        3.40879482      -1.40377276      -2.08960267
C        3.00641172       1.35779300      -0.01409399
C        3.38830768       2.50900107       0.01557414
H        0.58673578       0.42910343      -0.93618327
H        0.56997872       0.54754391       0.84699389
H        0.60226457      -1.06259732       0.05774936
H        2.92180354      -0.03934799       1.94301228
H        3.76548364      -1.95304905      -2.93694768
H        3.74183929       3.52008584       0.02573522
