15
Properties=species:S:1:pos:R:3 -1625.4787236636673=T 10.335739=T 11.26629=T -9.0266=T -7.0273=T -10.428=T 1.1734=T -0.5351=T 0.363=T 9.42989=T 0.38344=T 3.7959057816=T 11.6544856224=T 0.183488606=T pbc="F F F"
O        1.76422052       0.21069946       1.27499287
C        2.57744096       0.01750429       0.38599499
C        2.76204558      -1.30144496      -0.38572856
C        4.20623080      -1.27044797      -0.92117051
C        4.60788272       0.20642350      -0.93709865
C        3.67529865       1.15196880      -1.61810208
C        3.60195954       0.99066471      -0.09783853
H        2.01079346      -1.33640476      -1.19136187
H        2.54973262      -2.14835222       0.27816015
H        4.87025669      -1.81595095      -0.23379985
H        4.30903282      -1.73370660      -1.91407555
H        5.66678766       0.46327572      -0.88726487
H        4.07393181       2.10522465      -1.96409527
H        2.85468657       0.75818756      -2.22085236
H        3.86225960       1.83643876       0.53665009
