15
Properties=species:S:1:pos:R:3 -1494.085841297268=T 11.949928=T 11.97889=T -8.0908=T -6.1505=T -8.465=T 0.8221=T -0.2572=T 0.708=T 7.89683=T -0.18273=T 4.93774245=T 5.1567265232=T 0.405065242=T pbc="F F F"
O        4.25173352      -1.06750385      -0.63768330
C        3.18255538      -0.57098772       0.17194183
C        3.26838673       0.91952045       0.27846068
C        4.22167242       1.65172866      -0.32222828
N        4.33889922       3.03515137      -0.23438757
C        5.28199043       3.82271484      -0.88694030
N        6.21943500       3.49892312      -1.70066413
H        4.16264955      -2.03238725      -0.68874594
H        3.22130093      -1.01592438       1.18757568
H        2.20071071      -0.85326561      -0.26106119
H        2.49419476       1.39533380       0.88825292
H        4.98138358       1.15580779      -0.92575667
H        3.67005119       3.52659663       0.35280895
H        5.16166241       4.88380018      -0.62807576
H        6.24615417       2.48666196      -1.88478691
