12
Properties=species:S:1:pos:R:3 -1302.1786024011558=T 10.342768=T 10.12252=T -9.3492=T -7.2843=T -9.233=T -0.4991=T -2.2191=T -0.922=T 9.71758=T 1.61891=T 3.408065175=T 5.5556390796=T 0.538432314=T pbc="F F F"
C        3.10507505      -1.05804313      -0.12432826
C        2.51619879       0.15093097      -0.07076612
C        3.16801372       1.46296077      -0.02988619
C        2.45550750       2.61159080      -0.08547834
C        4.65808877       1.56835267       0.10317975
O        5.28118120       2.61687921       0.05236207
H        2.49690584      -1.96208816      -0.15852087
H        4.18578339      -1.20046711      -0.14433841
H        1.42139443       0.18796551      -0.06791848
H        1.36759943       2.60299727      -0.16635641
H        2.96912574       3.57297901      -0.05108694
H        5.19935614       0.60749218       0.27308821
