14
Properties=species:S:1:pos:R:3 -1522.6753504865467=T 10.564354=T 11.22836=T -8.3211=T -6.317=T -8.863=T 1.4153=T -0.2271=T 0.428=T 8.33736=T 0.24973=T 4.3653486824=T 11.6751912844=T 0.35676807=T pbc="F F F"
C        1.01226232       0.07990476       0.03975361
C        2.49367193      -0.06225775      -0.03116276
C        3.26946038      -1.16681114      -0.04486599
C        4.71225236      -0.75522791      -0.12396148
C        4.66006972       0.78090878      -0.15761260
O        5.58144916       1.58177973      -0.22362017
N        3.30576261       1.09316206      -0.09587514
H        0.53789066      -0.90781643       0.07935437
H        0.61940009       0.61618107      -0.83852966
H        0.70747669       0.64503372       0.93478969
H        2.90268872      -2.18864873      -0.00361808
H        5.31783671      -1.07496836       0.73926280
H        5.23449671      -1.11721758      -1.02401346
H        2.96679196       2.05066779      -0.10568111
