15
Properties=species:S:1:pos:R:3 -1445.299633166551=T 10.082264=T 10.69076=T -8.8992=T -6.7308=T -9.475=T 0.9676=T 0.0125=T 1.205=T 9.01535=T -0.72885=T 6.4135974024=T 0.358135973=T pbc="F F F"
N        1.91031518      -0.89971428      -0.97353100
C        2.06655505      -0.24156742       0.32873491
C        2.84044788       1.05403344       0.18007415
O        4.18811946       0.71830018      -0.20417024
C        5.03851112       1.76357860      -0.40754166
C        4.78766807       3.07675468      -0.28893502
H        1.38734469      -1.77082491      -0.86489352
H        2.83451974      -1.15817778      -1.32915967
H        2.56678487      -0.85884070       1.10238617
H        1.06643072       0.01486778       0.71319391
H        2.86195015       1.61082164       1.13328275
H        2.38600583       1.68537608      -0.60295024
H        6.02237076       1.38673683      -0.69653577
H        3.81907213       3.48361322      -0.00574651
H        5.59399435       3.77917264      -0.48911827
