17
Properties=species:S:1:pos:R:3 -1685.981724041618=T 10.821856=T 12.09805=T -9.4679=T -7.2802=T -10.903=T 0.8588=T -1.1187=T -0.072=T 10.13033=T 0.69991=T 3.6992091002=T 12.320798785=T 0.12247326=T pbc="F F F"
C        3.89951841       3.60850395      -3.15008683
C        4.32770922       3.49131530      -1.70090766
O        5.15639997       2.32575026      -1.56561516
C        5.59492531       2.11379684      -0.22608003
C        6.20703473       0.71610172      -0.14832673
C        6.65982023       3.14027471       0.15841748
O        6.82323115       3.58731428       1.27681246
H        3.25480194       4.48835588      -3.28233285
H        3.33897872       2.71672364      -3.46221470
H        4.77323383       3.71662746      -3.80715228
H        3.44840256       3.39402069      -1.03447663
H        4.88109082       4.39680954      -1.38403582
H        4.75265841       2.20391924       0.48713493
H        7.06876504       0.63292200      -0.82597617
H        5.45664850      -0.02616043      -0.45090793
H        6.53573361       0.49906936       0.87616839
H        7.32085756       3.43597558      -0.70079048
