15
Properties=species:S:1:pos:R:3 -1612.7283348506332=T 11.436892=T 11.99713=T -8.3244=T -6.2858=T -8.216=T 0.9257=T -0.5876=T 0.678=T 7.67449=T -0.13035=T 4.6301455826=T 6.9584910752=T 0.58717175=T pbc="F F F"
O        1.68563972      -0.26581498       1.24693326
C        2.45309686      -0.04817124       0.04746309
C        2.96925419       1.35539316       0.04856269
C        4.25881499       1.75371007      -0.10245223
C        4.31948381       3.25268796      -0.08633700
C        2.88568519       3.65993988       0.10162942
C        2.11718914       2.54743978       0.17789238
H        1.24099716      -1.12573746       1.15794638
H        1.81416810      -0.20107535      -0.84448094
H        3.29982533      -0.75533130      -0.01910015
H        5.12712922       1.10600423      -0.21554533
H        4.74643719       3.66304199      -1.01969012
H        4.96604372       3.62897299       0.72728894
H        2.54974137       4.69329292       0.16607062
H        1.03851400       2.50985733       0.32612900
