12
Properties=species:S:1:pos:R:3 -1290.4224743099817=T 9.20131=T 9.81522=T -8.9699=T -6.9513=T -9.421=T 1.1951=T -0.5085=T -0.292=T 8.9008=T 0.79573=T 4.7927036272=T 11.0724953384=T 0.432017917=T pbc="F F F"
C        0.95517528       0.04320204      -0.00523079
C        2.44563146      -0.01442001      -0.00163821
N        3.17806468       1.08680478      -0.00012406
O        4.52020762       0.66658184       0.00279019
C        4.55384636      -0.69361887       0.00307653
C        3.27580102      -1.17850268       0.00038438
O        2.77353132      -2.45090861      -0.00034073
H        0.62279398       1.08758695       0.00166711
H        0.54332379      -0.46983958       0.87542723
H        0.54804865      -0.45617822      -0.89596334
H        5.53733593      -1.15289535       0.00541461
H        3.50891993      -3.08752229       0.00252710
