15
Properties=species:S:1:pos:R:3 -1592.9754537661072=T 11.726879=T 13.63633=T -9.448=T -7.1926=T -9.389=T 1.1332=T -0.9184=T -0.089=T 8.9621=T 0.74082=T 3.658268923=T 10.077334108=T 0.806416286=T pbc="F F F"
C        0.95199398      -0.00458013       0.00017774
C        2.40788210      -0.00780845       0.00030617
C        3.62401484      -0.01912864       0.00040553
C        5.08221368      -0.01285953       0.00015047
C        5.66663707       1.40615057      -0.00381486
C        7.17222030       1.45557207      -0.00482084
O        7.90521769       0.48346136      -0.00067937
H        0.55596414       1.02198072       0.01180082
H        0.55250469      -0.52640452       0.88268997
H        0.55265748      -0.50627918      -0.89399643
H        5.46449303      -0.56238705      -0.87525526
H        5.46492298      -0.55775213       0.87824168
H        5.31600156       1.98578038       0.86897024
H        5.31446843       1.98171951      -0.87860673
H        7.60019800       2.49249503      -0.01005914
