18
Properties=species:S:1:pos:R:3 -1658.352812953178=T 10.89871=T 12.13855=T -9.2923=T -6.9225=T -10.64=T 0.9708=T -0.0032=T 3.16=T 10.39579=T -2.912=T 8.7628469346=T 12.1726107178=T 0.221645099=T pbc="F F F"
N        0.94699684      -0.02742834       0.02167320
C        2.41841385      -0.04323868      -0.01602554
C        2.97349879       1.38104479      -0.00899951
C        4.50229780       1.43381541       0.00367499
C        5.05743682       2.85807259       0.01075783
N        6.52875945       2.84228411      -0.02991581
H        0.58799753      -0.98470624       0.04543258
H        0.58696088       0.38633640      -0.84324521
H        2.84031189      -0.59024938      -0.88497732
H        2.76804977      -0.57151122       0.88696089
H        2.56059511       1.91006501       0.86582972
H        2.59728115       1.91524519      -0.90093492
H        4.91505419       0.90499931      -0.87134385
H        4.87863924       0.89942535       0.89544188
H        4.63725085       3.40441811       0.88096463
H        4.70601162       3.38704541      -0.89112950
H        6.89060258       2.42740639       0.83371676
H        6.88773166       3.79958579      -0.05325084
