11
Properties=species:S:1:pos:R:3 -1169.3319328881505=T 13.579697=T 13.89741=T -7.8768=T -6.0608=T -8.321=T 0.8316=T -0.5146=T -0.137=T 7.76773=T 0.8029=T 3.7480471856=T 10.5746791498=T 0.532582973=T pbc="F F F"
N        0.87308468       0.06413870      -0.21654193
C        2.26153167       0.02329685      -0.07577660
C        3.15474616       1.07036673      -0.02151982
C        4.50484360       0.61157946       0.01982067
Cl       5.85382946       1.71920517       0.10715162
C        4.65746636      -0.74743702       0.00270430
S        3.09710617      -1.52080281      -0.09308150
H        0.48063235       0.97711732       0.00704321
H        0.37650768      -0.66850284       0.28796530
H        2.87333759       2.12118456      -0.00466747
H        5.56460429      -1.33879613       0.04779221
