17
Properties=species:S:1:pos:R:3 -1800.8794807523857=T 11.863303=T 12.73527=T -8.6098=T -6.5216=T -8.705=T 1.0581=T 0.0698=T 1.417=T 8.2364=T -0.7752=T 5.8337148804=T 10.685423445=T 0.304823323=T pbc="F F F"
C        1.37119414       0.30963325       0.63790798
C        2.66407440      -0.10778995      -0.02241455
C        3.42166144       0.88566975      -0.87127870
C        4.02806745       0.40871653       0.44274662
C        4.96116691      -0.74554027       0.31460931
C        4.33775318      -1.83418235      -0.16916774
C        2.85909457      -1.59067201      -0.37088133
H        1.38415008       1.37625506       0.90536092
H        1.19163212      -0.26732272       1.55886001
H        0.51192138       0.14728446      -0.03283619
H        3.02558662       1.90303457      -0.89911036
H        3.90186838       0.54799352      -1.79262792
H        4.12582744       1.12026606       1.26583920
H        6.02469997      -0.68242664       0.55123596
H        4.82115623      -2.78274303      -0.40818540
H        2.53159797      -1.82125436      -1.39929854
H        2.25609770      -2.23418186       0.29662074
