19
Properties=species:S:1:pos:R:3 -1911.4972498816203=T 12.904989=T 14.27244=T -9.8188=T -7.5815=T -9.666=T 0.9307=T 0.0078=T 2.342=T 9.20546=T -1.9232=T 4.311055213=T 10.335596946=T 0.364597312=T pbc="F F F"
C        0.93881014      -0.08125053       0.14822813
C        2.46493606      -0.03615250       0.00615196
C        2.90267611      -0.77614865      -1.26313460
C        3.00615743       1.42664340       0.02062462
C        2.55850782       2.23674474       1.25600686
C        4.46724997       1.44968114      -0.07551957
C        5.68145683       1.47184563      -0.11196767
H        0.59028331       0.32428780       1.10733616
H        0.58363952      -1.11989658       0.08136054
H        0.45063373       0.48672020      -0.66093946
H        2.91342381      -0.54699569       0.87767951
H        2.45153403      -0.31695100      -2.15787524
H        2.57865517      -1.82648493      -1.22974175
H        3.99394732      -0.75658771      -1.38566659
H        2.60599974       1.92952357      -0.88194765
H        2.86971829       1.73089875       2.18171746
H        1.46841568       2.36250433       1.27348255
H        3.01783356       3.23360799       1.24493250
H        6.75114147       1.49184003      -0.15785777
