20
Properties=species:S:1:pos:R:3 -1895.1491613482885=T 11.827166=T 13.10206=T -9.3887=T -7.166=T -10.48=T 0.7433=T -0.2284=T 2.8=T 9.88654=T -2.52809=T 8.3664140982=T 12.5264419646=T 0.081645282=T pbc="F F F"
C        0.43846120       0.91533979      -0.45565200
C        1.63704659       0.50548123       0.40181719
C        2.81992665       1.49042206       0.35655465
N        2.49372854       2.85977301       0.83086126
C        4.02981882       0.96342994       1.14347407
C        5.29327599       1.81478644       0.98089465
O        5.17486985       3.11722596       1.54571451
H       -0.36370153       0.16634929      -0.39836140
H        0.72214800       1.01721151      -1.51485712
H        0.00711107       1.87413006      -0.12951270
H        1.99778617      -0.48402660       0.07401006
H        1.32286671       0.38317031       1.45437315
H        3.13097174       1.60620118      -0.69920964
H        2.04981910       2.80304802       1.75421476
H        1.81061979       3.29904321       0.20956251
H        4.24752098      -0.06412381       0.80700090
H        3.77229824       0.90082318       2.21643025
H        5.55081440       1.87138514      -0.09899063
H        6.13961714       1.32265575       1.48653819
H        4.27331057       3.42027434       1.27448736
