15
Properties=species:S:1:pos:R:3 -1508.600306759259=T 12.587931=T 13.33275=T -8.7383=T -6.7122=T -9.284=T 1.2902=T -0.2737=T 0.685=T 8.84982=T -0.09045=T 4.3683119478=T 10.6012865454=T 0.466410568=T pbc="F F F"
N        0.82272930       1.06925959      -0.98971425
N        2.18516229       0.94310520      -1.11961341
C        2.91967199       1.16228535      -0.08782472
C        4.41296196       1.13699186      -0.18945110
C        5.03902892       2.53710130       0.04261912
C        6.49564768       2.51888343       0.01810502
C        7.70875097       2.47331338      -0.00820910
H        0.35002588       0.48170423      -1.67324585
H        0.45674442       0.92157269      -0.04043512
H        2.47059833       1.39650501       0.89766409
H        4.69654882       0.76658149      -1.18378049
H        4.82986470       0.44290291       0.55890019
H        4.69787172       2.94050695       1.01143499
H        4.66537728       3.22873476      -0.73026878
H        8.77884574       2.44427182      -0.03154061
