12
Properties=species:S:1:pos:R:3 -1269.9566109582527=T 10.324995=T 10.66041=T -8.8127=T -6.7564=T -8.839=T 0.9049=T -0.7477=T 0.445=T 8.349=T 0.03751=T 4.1955994498=T 11.2240434262=T 0.593792798=T pbc="F F F"
C        1.08035139      -0.12436030      -0.21284437
O        2.50736967      -0.05263453      -0.20009535
C        3.04484560       1.19511200       0.00282800
C        2.35493269       2.34294140       0.18847258
C        4.47335758       1.15626828      -0.00218018
C        5.68780143       1.12781881      -0.00574103
H        0.83766270      -1.17857190      -0.38469689
H        0.65950341       0.49192224      -1.02433299
H        0.65815289       0.20281121       0.75158521
H        1.26860699       2.38260778       0.19407991
H        2.90470077       3.26800418       0.33910459
H        6.75831489       1.10182084      -0.00901948
