18
Properties=species:S:1:pos:R:3 -1818.6503692942451=T 12.164269=T 12.94697=T -8.5071=T -6.4369=T -8.721=T 0.8935=T -0.0539=T 1.473=T 8.16164=T -0.78667=T 5.9959381628=T 0.346832961=T pbc="F F F"
C        0.96968951      -0.00844015       0.02523824
C        2.47214618       0.01461014      -0.01031983
C        3.18829267       1.13124563       0.20830238
C        4.69464609       1.17890802       0.13953437
N        5.33059924      -0.01495934      -0.43360591
C        4.66644529      -1.23904522       0.02837732
C        3.16757978      -1.29617640      -0.30581105
H        0.60207988      -0.69345925       0.80731188
H        0.55704762      -0.37419034      -0.93043549
H        0.55260055       0.98965127       0.21689669
H        2.67240350       2.06475338       0.45933259
H        5.01781062       2.05368254      -0.44899700
H        5.10529691       1.34200344       1.15616752
H        5.24863068       0.03438967      -1.45353121
H        4.79567395      -1.28823889       1.12316353
H        5.19367752      -2.10780622      -0.39426330
H        2.68396738      -2.10714504       0.26878259
H        3.01901263      -1.56113322      -1.37022332
