17
Properties=species:S:1:pos:R:3 -1656.8832511227176=T 12.399714=T 13.18329=T -8.3653=T -6.3921=T -9.036=T 1.5015=T -0.2175=T 0.675=T 8.44663=T -0.1401=T 4.837065818=T 5.321107162=T 0.363184064=T pbc="F F F"
C        0.36457000       0.21921371       0.12024673
C        1.84136688      -0.09737629       0.14852854
C        2.52346758      -0.73184473      -1.04229165
C        2.80705140       0.70889739      -0.68359080
N        4.10507445       0.99576203      -0.13415508
N        4.16498828       2.04994156       0.72788372
C        5.29417152       2.64530430       0.89125735
H        0.11985550       1.02604143       0.82685751
H       -0.23562018      -0.66282818       0.38970788
H        0.04587358       0.54207763      -0.88211033
H        2.24311739      -0.39190874       1.12049140
H        1.93081472      -0.91834202      -1.93916166
H        3.31591728      -1.45592824      -0.85039123
H        2.36799687       1.47958262      -1.33033569
H        4.87583777       0.94017224      -0.81417023
H        5.34028237       3.44866678       1.62669998
H        6.20825459       2.37610850       0.33526355
