14
Properties=species:S:1:pos:R:3 -1491.0366264792192=T 10.837768=T 11.08927=T -9.1769=T -7.0087=T -9.6=T -0.1507=T -1.895=T -0.873=T 9.54243=T 1.49946=T 3.3948854632=T 4.8077183318=T 0.424406056=T pbc="F F F"
O        0.98589718      -0.10099556       0.27681966
C        2.18208329      -0.01095582       0.02194260
C        2.91859245       1.25150239      -0.03102357
C        4.24475930       1.36256647      -0.25615786
C        4.66492051       2.80481833      -0.17505016
N        3.40273761       3.57999183      -0.12648205
C        2.32499336       2.62152033       0.22667010
H        2.79486486      -0.92313938      -0.19507484
H        4.93158202       0.52958737      -0.41725386
H        5.26375263       2.96587117       0.74426715
H        5.30219030       3.12412842      -1.01466393
H        3.21497136       3.93408881      -1.06523740
H        1.41079485       2.80886338      -0.35379993
H        2.04745028       2.71445226       1.29239411
