17
Properties=species:S:1:pos:R:3 -1673.2242799682836=T 10.330021=T 11.46379=T -9.5418=T -7.2971=T -11.431=T 0.7754=T -0.2518=T 2.489=T 10.89832=T -2.17498=T 9.0809950106=T 13.5952880748=T 0.129966584=T pbc="F F F"
C        0.83745011      -0.12507784       0.15120673
C        2.34705364      -0.00816518      -0.01542756
C        2.77739944       0.00438175      -1.48672119
O        2.30093147       1.13738914      -2.21910475
C        3.06729839       1.08419340       0.81219936
O        4.00742762       0.11092431       1.35913939
C        3.22316696      -0.98340619       0.80949041
H        0.55861937      -0.16326443       1.21388802
H        0.45316642      -1.03807700      -0.33128023
H        0.31524703       0.73916013      -0.28884389
H        2.46430855      -0.94252927      -1.96903591
H        3.87520647       0.06001192      -1.54385781
H        1.34007763       1.03989631      -2.33393422
H        2.44748349       1.53431756       1.60794557
H        3.57407130       1.87802058       0.24195082
H        3.84811405      -1.69420214       0.24170667
H        2.67358806      -1.52873306       1.59798858
