17
Properties=species:S:1:pos:R:3 -1792.9612011233992=T 12.090748=T 12.91245=T -8.9616=T -6.8474=T -9.003=T 0.9414=T 0.1046=T 1.552=T 8.32875=T -0.88244=T 6.3833696156=T 0.446959148=T pbc="F F F"
C        1.04603020       0.01823237       0.04172644
C        2.38200101       0.02082175       0.00849667
C        3.35359369      -1.16221145       0.05410088
C        4.67501577      -0.36575375      -0.02825890
C        4.35345553       0.66923460      -1.14581081
C        3.32511575       1.19467069      -0.08566217
C        4.40910211       0.79540052       0.97389428
H        0.48027620      -0.91313395       0.11086303
H        0.47417229       0.94727032       0.00055939
H        3.21791510      -1.85026745      -0.79469489
H        3.26476897      -1.74293126       0.98537861
H        5.61112934      -0.93763333      -0.01879985
H        3.96001826       0.29990621      -2.10458040
H        5.17411372       1.38168973      -1.30733712
H        2.88887004       2.19959736      -0.13391744
H        5.23476686       1.51953048       1.00663282
H        4.06773516       0.54365718       1.98903947
