16
Properties=species:S:1:pos:R:3 -1630.9125511082323=T 10.953056=T 12.08793=T -9.4529=T -7.3957=T -10.554=T 0.7696=T -0.1599=T 0.365=T 9.89885=T 0.20724=T 4.3329883364=T 6.2258454026=T 0.211534657=T pbc="F F F"
O        2.85493547      -0.13540620       0.20513265
C        2.64309963       0.87834440       0.86273862
N        2.96587527       2.15141119       0.48766906
C        3.65599011       2.47582233      -0.75780969
C        4.89446117       3.31014572      -0.52637070
C        5.38392797       4.22526628      -1.62125354
C        4.77500540       4.81162688      -0.36895934
H        2.14908282       0.85851991       1.86237068
H        2.75496060       2.90572779       1.13643753
H        2.96966773       3.00951245      -1.43908277
H        3.90275329       1.51256795      -1.22589321
H        5.66295856       2.82044700       0.07692504
H        4.79696050       4.27302858      -2.54026376
H        6.45976377       4.32026180      -1.76640513
H        5.43582496       5.31152401       0.33949278
H        3.78125275       5.25640990      -0.45501823
