12
Properties=species:S:1:pos:R:3 -1168.8906364014688=T 7.280778=T 7.72682=T -10.998=T -8.5616=T -12.282=T 1.0928=T 0.1531=T 3.314=T 12.06392=T -3.14312=T 10.609977964=T 14.63530744=T 0.499724581=T pbc="F F F"
C        0.34153625       1.03857962      -0.09372648
C        1.01486254      -0.33510713       0.17613063
C       -0.33739712      -1.01387267      -0.17610970
C       -1.03666848       0.34678097       0.09370222
H        0.59452012       1.87967860       0.56690688
H        0.48861590       1.35500735      -1.13748229
H        1.25482289      -0.45728386       1.24319677
H        1.90081240      -0.60437811      -0.41588935
H       -0.38267652      -1.27933338      -1.24318636
H       -0.65076215      -1.88523276       0.41587614
H       -1.86226272       0.64633799      -0.56696828
H       -1.37831311       0.41786337       1.13743982
