14
Properties=species:S:1:pos:R:3 -1444.0584416772115=T 9.420804=T 10.43906=T -9.8793=T -7.5875=T -11.101=T 0.7826=T -0.3837=T 0.144=T 10.38658=T 0.50941=T 4.3634516966=T 7.6023007788=T 0.107123573=T pbc="F F F"
N        2.15504822      -0.44162328      -1.37671484
C        2.39180808       0.01655312      -0.00111552
C        3.14557119       1.34355021      -0.02386100
C        2.38865269       2.59010391      -0.50023568
O        2.54901653       3.21357960       0.83897787
C        3.22889308       2.09981805       1.30657918
O        3.66754176       1.91721131       2.40973826
H        1.52723486      -1.24794432      -1.37344515
H        3.03199414      -0.76302410      -1.79561555
H        2.95172402      -0.69213530       0.63825317
H        1.41127298       0.17071467       0.47761549
H        4.13883385       1.22205360      -0.48339716
H        1.32671247       2.43785085      -0.72887082
H        2.87550615       3.20764169      -1.26410825
