16
Properties=species:S:1:pos:R:3 -1603.518405164225=T 10.818411=T 11.98584=T -9.2049=T -7.0869=T -10.75=T 1.2187=T -0.8492=T -0.005=T 10.08058=T 0.6234=T 3.6764204734=T 11.36641655=T 0.201923081=T pbc="F F F"
O        1.81007960      -0.42421820      -0.37213192
C        2.32683331      -0.04309004       0.66331049
C        3.27351757       1.12073993       0.78183626
C        3.57057047       1.83780593      -0.52953498
N        4.44499780       2.98760496      -0.28884127
C        5.88537357       2.70769201      -0.36842517
C        5.19299389       3.45542772      -1.45921782
H        2.11110475      -0.56665751       1.63194381
H        4.20000630       0.74438410       1.25458282
H        2.85224577       1.82382043       1.52335853
H        2.63124198       2.20752242      -0.96829737
H        4.00354087       1.12163340      -1.25833643
H        6.19511443       1.68113011      -0.59490553
H        6.51185620       3.23723658       0.35239624
H        5.30632371       4.53803395      -1.54533612
H        5.04347979       2.92307421      -2.40469154
