18
Properties=species:S:1:pos:R:3 -1727.851257111849=T 11.516052=T 12.58631=T -8.2957=T -6.2336=T -9.756=T 0.9394=T 0.0229=T 3.154=T 8.98844=T -2.86282=T 7.7828243948=T 11.8515861666=T 0.089096538=T pbc="F F F"
C        1.54814503      -0.48287096      -1.07972508
O        2.05879917       0.18535943       0.06696224
C        3.24405011       0.90853711      -0.21984042
C        3.05036812       2.30260291      -0.88369707
N        3.15110920       2.92871407       0.45538994
C        3.91614343       4.15147924       0.57642157
C        3.73220002       1.68579199       1.01776353
H        0.64633372      -1.02023359      -0.76108324
H        2.28048833      -1.20909469      -1.48134497
H        1.27643738       0.22380067      -1.88500402
H        3.98321158       0.24861424      -0.70903654
H        2.09991539       2.48824880      -1.40940742
H        3.89799508       2.55377415      -1.55448282
H        3.98521205       4.44432325       1.63480069
H        3.40670248       4.96452748       0.03810027
H        4.95136511       4.06236634       0.17277667
H        4.83929928       1.70330892       1.08079372
H        3.30960455       1.36882064       1.98348295
