19
Properties=species:S:1:pos:R:3 -1773.818483161463=T 11.366088=T 12.18007=T -8.2191=T -6.2177=T -9.681=T 0.9767=T 0.0647=T 3.28=T 8.88616=T -2.97622=T 7.6641449956=T 12.2612111134=T 0.172520208=T pbc="F F F"
C        0.96778304      -0.11624089       0.01606717
C        2.49770943      -0.01072926      -0.00738793
C        3.03851077      -0.79870221      -1.20698575
N        2.93684484       1.40196834      -0.05211595
C        2.42020110       2.17744052       1.07491107
C        4.39334063       1.52715450      -0.09019352
H        0.52692517       0.28522582       0.93715735
H        0.66864796      -1.17111268      -0.05431045
H        0.53654360       0.42304209      -0.84132484
H        2.89051406      -0.48869164       0.92433622
H        2.74786051      -0.30582923      -2.14748309
H        2.61585552      -1.81286064      -1.20430550
H        4.13073676      -0.90234401      -1.19154833
H        1.32580577       2.23912254       1.04181881
H        2.80978817       3.20306402       1.01195401
H        2.71818138       1.75962680       2.06432154
H        4.80186476       1.09384928      -1.01104545
H        4.89527790       1.04186234       0.77860853
H        4.66109863       2.59292431      -0.08089388
