14
Properties=species:S:1:pos:R:3 -1418.3311237050232=T 9.562243=T 10.5477=T -9.7999=T -7.6436=T -11.059=T 0.6515=T -1.3392=T -0.314=T 10.30358=T 0.94727=T 3.6957002964=T 11.2981126626=T 0.11908958=T pbc="F F F"
O        2.03446131       0.01315942       1.00604302
C        2.71388866      -0.20617291      -0.20826925
C        1.73506262      -0.52324267      -1.32063274
O        0.53365479      -0.58664935      -1.11046924
C        3.57161116       0.99293973      -0.59608770
C        4.99071273       1.08195024      -0.16565151
N        4.65625739       0.70168540      -1.55556223
H        1.08618752      -0.14516168       0.79529324
H        3.39409375      -1.08282159      -0.13792922
H        2.16987988      -0.68963095      -2.33178851
H        3.01640215       1.93134452      -0.69100089
H        5.41553233       0.27636861       0.43820867
H        5.40202088       2.07519563       0.02611329
H        4.79233483       1.50097560      -2.18113694
