17
Properties=species:S:1:pos:R:3 -1701.55747422085=T 10.540472=T 11.83774=T -9.9238=T -7.8702=T -10.921=T 0.8187=T -0.9615=T -0.025=T 9.93134=T 0.75183=T 3.7887393908=T 10.7109149666=T 0.106641269=T pbc="F F F"
C        2.63863380      -1.07464971      -1.33026449
C        2.68864892      -0.51127268       0.09173030
C        3.41871423       0.83289267       0.18201426
C        4.91838213       0.74723942      -0.01653757
O        5.57503716      -0.25950972       0.23056691
C        5.64455176       1.98397024      -0.51995527
O        7.03712027       1.79782123      -0.53694789
H        2.08450672      -2.02326455      -1.35800606
H        3.64863283      -1.27087644      -1.71821408
H        2.13817142      -0.37680676      -2.01942657
H        3.19158560      -1.22733765       0.75882572
H        1.66587790      -0.37920427       0.47694766
H        3.28022496       1.27321029       1.18681233
H        2.99936178       1.56985067      -0.52416658
H        5.36647905       2.84734905       0.11557989
H        5.25464500       2.20665155      -1.53509372
H        7.15550646       0.85869665      -0.26279484
