19
Properties=species:S:1:pos:R:3 -1938.5822687231882=T 11.847266=T 13.15974=T -9.5899=T -7.4587=T -10.843=T 0.9779=T 0.0834=T 3.12=T 10.40272=T -3.1154=T 8.9099315264=T 11.2234358948=T 0.179937367=T pbc="F F F"
C       -1.75567696       0.85788666       0.51652661
C       -1.15112959      -0.23813498      -0.33071951
C       -0.34163506      -1.36228298       0.29572235
C        1.10139732      -1.36662548      -0.25137537
C        1.78562600       0.03035925      -0.17252262
C        0.87148005       1.11531582       0.43479938
C       -0.48354075       1.12500689      -0.25452519
H       -2.67559315       1.32777701       0.16651300
H       -1.68185681       0.76128993       1.60281401
H       -1.67272376      -0.48504068      -1.25907666
H       -0.32217012      -1.24377532       1.39139207
H       -0.81745603      -2.33653315       0.10586311
H        1.69562515      -2.11587369       0.29449063
H        1.07519110      -1.70475979      -1.29954887
H        2.71624177      -0.03110555       0.41289790
H        2.08341031       0.35176082      -1.18333025
H        0.74117207       0.92884008       1.51324804
H        1.35520030       2.10081225       0.35514747
H       -0.56793183       1.76981292      -1.13318611
