13
Properties=species:S:1:pos:R:3 -1427.5786042016255=T 9.645704=T 10.18354=T -8.9667=T -6.8623=T -9.586=T 0.7562=T -1.1118=T 0.041=T 9.82749=T 0.67645=T 3.7122276302=T 6.0337414942=T 0.221994899=T pbc="F F F"
O        0.89551386       0.09310516       0.33080274
C        2.09713200      -0.00258772       0.14411033
C        2.94348011       1.24674421      -0.07917921
O        4.31644298       1.17321830       0.34266181
C        4.93294201      -0.02828672       0.10613834
C        4.30562595      -1.19747520      -0.08446748
C        2.81503380      -1.33589603       0.03078832
H        2.48997696       2.09571650       0.44539913
H        2.91671777       1.44988052      -1.16825500
H        6.01846935       0.07936429       0.11425841
H        4.91024076      -2.08437965      -0.27282175
H        2.37477435      -1.87159643      -0.82917857
H        2.52771010      -1.93261723       0.91406292
