11
Properties=species:S:1:pos:R:3 -1297.6146925516398=T 11.712803=T 13.17172=T -10.2459=T -7.926=T -9.574=T 1.0499=T -0.1108=T 1.66=T 9.3366=T -1.36376=T 4.3416921536=T 9.1104664828=T 0.101550262=T pbc="F F F"
C        0.92579674      -0.02714210       0.03278735
C        2.13514914       0.00732312      -0.01730991
C        3.60863630       0.03608877      -0.05510387
C        4.14005194      -0.71575427      -1.20645732
C        4.58610545      -1.34688170      -2.13863405
C        4.12763977       1.41546645      -0.01729131
C        4.56381160       2.54395551       0.03269301
H       -0.14398386      -0.05510857       0.07262301
H        3.96872669      -0.47345839       0.86189720
H        4.97815956      -1.90160438      -2.96653791
H        4.94733667       3.54301556       0.07255380
