15
Properties=species:S:1:pos:R:3 -1534.2851155700585=T 11.395927=T 12.02128=T -8.6855=T -6.6091=T -9.034=T 0.8938=T -0.1519=T 1.084=T 8.5136=T -0.61523=T 6.0034393158=T 0.403114971=T pbc="F F F"
O       -0.22315634      -0.48581743      -0.47657236
C        1.12868235      -0.33617103      -0.05333050
C        1.61311774       1.05217006      -0.37394909
C        0.87019151       2.03835120      -0.88814661
O        2.96259526       1.12949366      -0.06770367
C        3.50303133       2.37705275       0.15767460
C        4.79662810       2.62515449      -0.05952634
H       -0.50411173      -1.38592267      -0.24687077
H        1.80056911      -1.05596520      -0.55899320
H        1.23539715      -0.49920765       1.03667193
H       -0.18294694       1.84857068      -1.07908061
H        1.28914511       3.00778903      -1.14958718
H        2.80092236       3.10817012       0.56967712
H        5.45821152       1.87206988      -0.48621640
H        5.20673349       3.59671212       0.20702307
