14
Properties=species:S:1:pos:R:3 -1423.2164350325422=T 12.040742=T 13.23422=T -9.4473=T -7.2239=T -9.22=T 1.3291=T -0.5771=T 0.287=T 8.79305=T 0.25228=T 4.1875775556=T 10.4169813564=T 0.478879846=T pbc="F F F"
C        0.95525880      -0.04461617      -0.00376173
C        2.40863275      -0.00826572      -0.00027075
C        3.62304908       0.03153229       0.00302942
C        5.07440169       0.03870750       0.00434379
O        5.53621828       1.41114107       0.13252452
N        6.94188489       1.39021169       0.13947917
C        7.42253418       2.57298514       0.24620201
H        0.54283134       0.97516738       0.00851087
H        0.56593709      -0.57442667       0.87808835
H        0.57110541      -0.54982574      -0.90218610
H        5.47313059      -0.38695319      -0.93194432
H        5.47247431      -0.55251005       0.84616209
H        8.51004489       2.64685373       0.26026450
H        6.79899668       3.47144874       0.32047816
