12
Properties=species:S:1:pos:R:3 -1307.8201803814302=T 9.345869=T 9.46576=T -8.6384=T -6.495=T -8.472=T 0.4602=T -1.1606=T 0.455=T 8.0226=T 0.04838=T 4.5760628894=T 7.1276699722=T 0.431324394=T pbc="F F F"
O        0.86803997      -0.03811719       0.19219179
C        2.28862030       0.02810927       0.03831122
C        2.86591895       1.20397610      -0.72491897
C        3.72125747       0.73389572      -1.65933121
C        3.70312665      -0.74026184      -1.64275910
C        2.83800948      -1.16850589      -0.69793292
H        0.58993249       0.73556136       0.71270258
H        2.78517885       0.02982313       1.03812437
H        2.65545342       2.24533451      -0.48589457
H        4.34008288       1.33279495      -2.32766727
H        4.30515857      -1.36951597      -2.29786964
H        2.58306096      -2.19308413      -0.43667628
