17
Properties=species:S:1:pos:R:3 -1617.5119699569896=T 11.539515=T 12.03023=T -8.9296=T -6.879=T -9.444=T 1.1757=T -0.417=T 0.594=T 8.99401=T 0.02423=T 4.8422980272=T 5.647810272=T 0.193596=T pbc="F F F"
C        1.00769765      -0.00988604       0.09873187
C        2.53576353       0.02789635      -0.07139663
C        2.96874392      -0.82027927      -1.27793111
O        4.37936669      -0.90938386      -1.44333657
C        3.02106041       1.45250355      -0.15691697
N        3.85875735       1.83721743      -1.05274628
N        4.19018028       3.17333234      -1.12442013
H        0.68437180       0.58177988       0.96727256
H        0.66040526      -1.04231737       0.24892295
H        0.50299429       0.39489067      -0.79158122
H        2.99268363      -0.41938371       0.83331471
H        2.48433816      -0.41205105      -2.18757992
H        2.60359844      -1.85020297      -1.14134087
H        4.66066414       0.01925641      -1.58602049
H        2.62839501       2.16705557       0.59310250
H        5.12905123       3.27802133      -1.50482302
H        4.08670822       3.68388074      -0.23815136
