21
Properties=species:S:1:pos:R:3 -2008.3616137264903=T 12.527055=T 14.23407=T -9.644=T -7.391=T -11.594=T 0.9217=T 0.0236=T 2.997=T 10.89114=T -2.72877=T 9.3839795988=T 10.9907141728=T 0.135332995=T pbc="F F F"
C        1.77468552      -0.93597059      -0.39290864
O        3.05504388      -0.34654068      -0.23738330
C        2.98224699       1.07699838      -0.18283109
C        4.39515660       1.62940149      -0.05545435
C        4.47326966       3.15478788       0.12999705
C        5.91810211       3.57754183       0.42395799
C        3.92356475       3.92604164      -1.07813911
H        1.92080702      -2.02298844      -0.43687405
H        1.28203670      -0.60100953      -1.32627957
H        1.10804685      -0.69632395       0.45805482
H        2.36507356       1.39108006       0.68596552
H        2.48160068       1.45720794      -1.09580021
H        4.97438983       1.33515708      -0.94802327
H        4.87226774       1.13374374       0.80592935
H        3.85887708       3.41916039       1.01136490
H        6.57587901       3.33747469      -0.42700813
H        6.31560158       3.06069946       1.30996232
H        5.98716794       4.66072769       0.60349865
H        4.48400002       3.66756413      -1.99156290
H        4.01863002       5.01149882      -0.92566678
H        2.86174244       3.71127798      -1.26411921
