13
Properties=species:S:1:pos:R:3 -1395.5558718085615=T 10.09504=T 10.7182=T -7.92=T -5.9032=T -8.086=T 0.6599=T -0.2442=T 0.707=T 7.61644=T -0.04176=T 4.5126068546=T 6.588182089=T 0.274924736=T pbc="F F F"
C        0.98624696      -0.00109571      -0.00581945
C        2.47695735       0.03350746      -0.00008344
N        3.22498566       1.13351048       0.00524876
C        4.51972360       0.69998387       0.00832357
O        5.51536563       1.63771283       0.01415318
C        4.59543731      -0.68007491       0.00496217
N        3.26227262      -1.08772987      -0.00040766
H        0.61738621       1.03025168       0.00252328
H        0.58296631      -0.51889738       0.87782584
H        0.58947735      -0.50188388      -0.90218665
H        6.37052260       1.17458394       0.01589310
H        5.42041712      -1.38274209       0.00612089
H        2.93771127      -2.04929642      -0.00399359
