14
Properties=species:S:1:pos:R:3 -1460.3411436811007=T 9.854829=T 10.80235=T -9.718=T -7.6025=T -10.853=T 0.7212=T -1.1584=T -0.197=T 10.08825=T 0.92241=T 3.7635206384=T 9.2940897488=T 0.228632273=T pbc="F F F"
C        0.92993080      -0.45795215       0.09599457
C        2.41172077      -0.74327568       0.11810401
O        2.87519403      -1.85838244      -0.07980563
C        3.32335834       0.43910044       0.41605705
N        4.69782025       0.00866307       0.47102997
C        5.71515523       0.84941574       0.80444449
O        5.57722011       2.03926358       1.07385284
H        0.70687032       0.45058347      -0.48094729
H        0.57998319      -0.27860971       1.12445991
H        0.39042353      -1.31554900      -0.31937341
H        3.01472992       0.91467756       1.36363717
H        3.17099564       1.20982515      -0.36150816
H        4.86243724      -0.97916993       0.27002582
H        6.70134063       0.33144991       0.80434866
