20
Properties=species:S:1:pos:R:3 -1934.7421975842803=T 12.333394=T 13.8213=T -8.6889=T -6.5039=T -10.192=T 0.9379=T 0.013=T 3.077=T 9.51141=T -2.7901=T 8.3633764412=T 11.4845876066=T 0.150978613=T pbc="F F F"
C        1.04350965      -0.24712658      -0.00210741
C        2.48004185      -0.12851006      -0.51517574
C        3.37914803       0.70442680       0.40361104
C        4.82552179       0.79980089      -0.07592583
C        5.79011138       1.51210498       0.91174195
N        6.22899526       0.18013991       1.41063591
C        5.69071212      -0.46714379       0.18310803
H        0.41704392      -0.83654669      -0.68691660
H        0.57722698       0.74403434       0.10795782
H        1.01385586      -0.73690441       0.98322548
H        2.47738712       0.32198672      -1.52329215
H        2.91070313      -1.13751114      -0.63435846
H        3.36852559       0.27914556       1.42273721
H        2.96321051       1.72458420       0.48879831
H        4.85974657       1.17798413      -1.10887257
H        5.33109349       2.15568538       1.68095697
H        6.57421795       2.08762332       0.38537382
H        7.23681997       0.07974550       1.54570720
H        6.43709406      -0.63125048      -0.61615750
H        5.15639476      -1.41403859       0.36935253
