11
Properties=species:S:1:pos:R:3 -1174.3416632329413=T 9.173028=T 9.82718=T -9.8095=T -7.6826=T -10.113=T 0.8191=T -0.158=T 0.243=T 10.03684=T 0.33739=T 4.3275949454=T 11.0817074982=T 0.519689327=T pbc="F F F"
O        2.74518680      -1.10614142       0.06765922
C        2.21111093      -0.00425543      -0.00049478
N        2.88924635       1.17734553      -0.04031199
C        4.35460494       1.20873024      -0.00554660
C        4.85283148       2.57564043      -0.00101723
C        5.26260694       3.71704349       0.00181614
H        1.10758342       0.14507209      -0.03599810
H        2.38318078       2.05626868      -0.10109014
H        4.75580928       0.65934866      -0.87414242
H        4.70705458       0.66871095       0.88912224
H        5.63580451       4.72104678       0.00597367
