14
Properties=species:S:1:pos:R:3 -1556.005889926927=T 12.512764=T 12.10356=T -8.2403=T -6.3594=T -8.165=T 0.9057=T -0.6251=T 0.509=T 7.59692=T -0.04901=T 4.6715817038=T 5.784008893=T 0.336393539=T pbc="F F F"
C        2.68355948      -1.17769888       0.29596708
C        2.23898231       0.07776287       0.14748793
N        3.02126661       1.24136281       0.08605896
C        2.49205935       2.51881987      -0.06973968
C        3.53339555       3.42004022      -0.08947396
C        4.74296844       2.67315407       0.05900426
C        4.40338186       1.34098646       0.16465696
H        1.96568807      -1.99384882       0.32824920
H        3.73907801      -1.42980911       0.38737983
H        1.17190322       0.28874767       0.05925801
H        1.41923760       2.66018315      -0.15157028
H        3.43918955       4.49614027      -0.19830419
H        5.75400696       3.06896886       0.08562522
H        5.02293300       0.46080056       0.28823068
