10
Properties=species:S:1:pos:R:3 -1116.9206210784391=T 8.198771=T 8.77631=T -10.2401=T -8.1025=T -10.552=T 1.6141=T -0.2673=T -0.014=T 10.36873=T 0.64974=T 4.2690983506=T 10.6919575072=T 0.542210277=T pbc="F F F"
O        2.78207326      -0.93382539       0.96271639
C        2.15710671       0.02592701       0.24081901
O        0.97465784      -0.02022650      -0.00545697
C        3.04391744       1.19247108      -0.25495246
C        4.44356594       1.10270182       0.12504355
C        5.59156412       0.93676195       0.48629305
H        3.73331537      -0.68872091       1.03582301
H        2.58893034       2.11822927       0.12925509
H        2.93424575       1.22693389      -1.34959759
H        6.61340321       0.82627779       0.78968692
