16
Properties=species:S:1:pos:R:3 -1616.4244283494934=T 10.264958=T 11.15063=T -9.1621=T -7.0182=T -10.514=T 0.8304=T -0.1585=T 2.784=T 10.0185=T -2.50932=T 8.3760354118=T 12.2753455174=T 0.169420658=T pbc="F F F"
O        1.20998277       0.01040347       0.60107674
C        2.56381907       0.03560764       0.10861169
C        2.77279943      -1.30864276      -0.62230875
C        2.58526906      -1.02001673      -2.10578875
N        3.69551582      -0.35537290      -2.82089202
C        2.57418426       0.46143048      -2.31148755
C        2.75949328       1.14250305      -0.96142317
H        1.03080196       0.86963439       1.02137975
H        3.26155375       0.15798607       0.95746965
H        2.03608966      -2.03236371      -0.24640530
H        3.77272736      -1.72670074      -0.42081256
H        1.99143858      -1.70335558      -2.71667312
H        4.50280559      -0.26248176      -2.19153871
H        1.97231180       0.94551488      -3.08362144
H        3.75912763       1.60423543      -0.88403847
H        2.02591999       1.94959876      -0.81086800
