13
Properties=species:S:1:pos:R:3 -1331.118923267035=T 10.579053=T 11.36965=T -9.7762=T -7.7396=T -10.786=T 0.8137=T -0.9817=T -0.088=T 10.30232=T 0.64219=T 5.3281371682=T 12.0761000154=T 0.258966295=T pbc="F F F"
C        1.75333504      -0.62272811       0.78041542
O        3.05445760      -0.35011649       0.23533607
N        3.33768904       1.00955354       0.40061826
C        4.49979147       1.30660687      -0.05320304
C        4.93959499       2.74514132       0.02614044
C        6.20530423       2.90260558       0.74391271
N        7.21985051       3.01970890       1.30657069
H        1.59295256      -1.69392216       0.61179189
H        0.98102147      -0.03889932       0.25892270
H        1.72678324      -0.40248513       1.85739419
H        5.16820365       0.55730309      -0.49484694
H        4.15808729       3.33425400       0.52747770
H        5.07219890       3.16007791      -0.98769009
