14
Properties=species:S:1:pos:R:3 -1379.2067349503748=T 10.290501=T 10.98025=T -9.2623=T -7.1388=T -10.687=T 1.2222=T -0.6865=T 0.183=T 10.36345=T 0.34637=T 5.4105134666=T 6.5340498014=T 0.372775501=T pbc="F F F"
O        0.18272612       0.61233325      -0.41328825
C        1.33460775      -0.05260627       0.04937768
C        2.00531668      -0.98874446      -0.91841332
C        2.68095655       0.29835980      -0.52910191
O        3.83740764       0.15489702       0.27412645
N        3.98461236       1.30940520       1.08597091
C        5.04287339       1.22780708       1.80201378
H        0.15245366       1.48269100       0.02384244
H        1.32641871      -0.35666435       1.10199374
H        1.60074780      -1.04338229      -1.92884710
H        2.41434700      -1.91604148      -0.51789192
H        2.72840700       1.10616066      -1.26453630
H        5.24234563       2.07372660       2.46040855
H        5.72369973       0.36890824       1.77344525
