14
Properties=species:S:1:pos:R:3 -1437.317952873052=T 10.991811=T 11.01769=T -8.493=T -6.6464=T -9.25=T 0.7064=T -0.9516=T -0.712=T 8.6299=T 1.35752=T 3.5351136292=T 4.49015299=T 0.445830467=T pbc="F F F"
C        3.10991076      -0.68599558      -0.35019359
O        2.41982575       0.57273928      -0.29011646
C        3.14929273       1.69069542      -0.05027976
N        2.30959434       2.77644143       0.00560127
C        4.51053153       1.70827286       0.15704328
C        5.27921962       2.91207970       0.32697222
O        6.49511085       2.95842317       0.52411042
H        2.33743084      -1.42554020      -0.58406284
H        3.57275333      -0.92435100       0.61820596
H        3.87365330      -0.67794637      -1.14099730
H        1.44463817       2.68311615      -0.51986491
H        2.74808986       3.69078814      -0.03920734
H        5.06430064       0.77307021       0.19289615
H        4.70583827       3.87983680       0.25923289
