20
Properties=species:S:1:pos:R:3 -1937.6720862565373=T 12.246719=T 13.40001=T -8.4616=T -6.3948=T -10.052=T 0.86=T -0.0516=T 2.83=T 9.42617=T -2.48939=T 8.0736087606=T 10.579043457=T 0.125521169=T pbc="F F F"
C        0.94323299       0.04969239       0.05373150
C        2.45442709      -0.06785063       0.05428828
N        3.21411321       1.00582108       0.78392425
C        4.14483296      -0.04567838       1.31648517
C        3.19559441      -1.19348305       0.86240603
C        2.38890064      -1.75431041       2.03435578
C        3.81278259      -2.31649486       0.03489233
H        0.48216477      -0.76550238      -0.52360611
H        0.64278650       0.99888080      -0.41501606
H        0.52447865       0.02617760       1.07104993
H        2.81027156      -0.07884663      -0.99298586
H        2.62988066       1.35291633       1.55209006
H        5.09972400      -0.02624395       0.76505982
H        4.35999936       0.01678246       2.39464760
H        1.96575076      -0.95428696       2.66118921
H        3.03552229      -2.37083791       2.67816294
H        1.55735376      -2.38826825       1.68927668
H        4.40503474      -1.91495437      -0.80128753
H        3.03504764      -2.97372626      -0.38611556
H        4.47713142      -2.94534660       0.64874151
