17
Properties=species:S:1:pos:R:3 -1658.755963715732=T 10.311112=T 11.04131=T -8.3641=T -6.2769=T -9.834=T 0.9599=T 0.0236=T 3.149=T 9.14561=T -2.93487=T 7.9980516922=T 11.024091204=T 0.128069068=T pbc="F F F"
C        0.74139386       1.28332241      -0.21745091
C       -0.72585751       1.26133014       0.23217878
C       -1.41386195      -0.03508653      -0.22310332
N       -0.71534023      -1.26557611       0.17352418
C        0.69857985      -1.24277156      -0.22615483
C        1.46775508       0.00721970       0.22905185
H        0.77948381       1.35267811      -1.31994022
H        1.25349740       2.17811900       0.16987473
H       -1.26714984       2.13639614      -0.16462910
H       -0.77520471       1.32928822       1.33413293
H       -2.44572847      -0.08505214       0.15796843
H       -1.48471303      -0.03949302      -1.32655352
H       -0.76971161      -1.36319706       1.19216733
H        1.17975688      -2.15783188       0.15277723
H        0.72832022      -1.30468294      -1.32974435
H        1.55357704      -0.00219247       1.33082602
H        2.49564319      -0.01486001      -0.16986524
