16
Properties=species:S:1:pos:R:3 -1587.6595799113854=T 10.365625=T 11.54422=T -8.714=T -6.5197=T -10.202=T 0.8465=T -0.1044=T 2.659=T 9.57549=T -2.31055=T 8.1813525946=T 10.781512595=T 0.204501663=T pbc="F F F"
C        0.71661192       0.99253988      -0.40217161
O       -0.32764902       0.07524556      -0.02178873
C        1.01934487      -0.42963958      -0.16456886
C        1.71067849      -0.92058189       1.07865174
C        1.48914878      -0.19645469       2.43082459
N        1.19921374      -1.50037158       3.12288649
C        1.15088394      -2.18652131       1.78671818
H        0.65540357       1.37261658      -1.42741743
H        0.98555459       1.73078191       0.36179805
H        1.14983412      -1.06650593      -1.05056868
H        2.78426741      -1.03670200       0.85538072
H        0.59271721       0.44307251       2.43440072
H        2.34086881       0.37177777       2.83185117
H        2.03523946      -1.80610179       3.62779569
H        1.74761467      -3.10660335       1.70484866
H        0.10944744      -2.40949209       1.50599929
