15
Properties=species:S:1:pos:R:3 -1616.1230770964507=T 11.98696=T 12.08175=T -8.0461=T -6.0362=T -8.192=T 0.8091=T -0.6821=T 0.377=T 7.6682=T 0.14368=T 4.8821223304=T 0.55948159=T pbc="F F F"
C        0.97510863       0.02378013       0.05720857
C        2.46722744      -0.04417652       0.04875345
C        3.26133555      -1.12543066      -0.08599245
C        4.69322291      -0.70474616      -0.03384013
O        4.65401246       0.72734907       0.14417361
C        3.33233522       1.13277700       0.19528079
C        2.98407968       2.42426597       0.35684672
H        0.53049847      -0.97194310      -0.06275092
H        0.60816936       0.66760657      -0.75652951
H        0.60842509       0.45588859       1.00065088
H        2.94092095      -2.15826961      -0.21434019
H        5.24952830      -1.15098646       0.81077165
H        5.24960393      -0.93071381      -0.96189109
H        3.73542516       3.20479731       0.45432061
H        1.93298684       2.69931169       0.39156802
