12
Properties=species:S:1:pos:R:3 -1298.8758121979774=T 9.491186=T 9.76266=T -8.8772=T -6.9728=T -9.523=T 0.6265=T -1.0978=T -0.745=T 9.12773=T 1.2941=T 4.205543127=T 4.6395437214=T 0.273671486=T pbc="F F F"
C        0.94782652       0.02857478       0.01947499
C        2.43822452       0.05925487      -0.01963068
C        3.29343616       1.11027699      -0.09399452
N        4.60589301       0.69093640      -0.24195874
O        4.62033557      -0.71697439      -0.07617428
C        3.25931366      -1.14647184       0.00174280
O        2.99236331      -2.32790088       0.05508032
H        0.52611732       1.04124006       0.02850540
H        0.59386204      -0.50653955       0.91235284
H        0.54547825      -0.50912046      -0.85193973
H        3.08959277       2.17969036      -0.11165128
H        5.31064686       1.08772366       0.38720290
