15
Properties=species:S:1:pos:R:3 -1562.2596093176655=T 10.186535=T 11.46095=T -9.6436=T -7.4941=T -11.076=T -0.7225=T -2.8248=T -1.905=T 10.8322=T 2.18291=T 2.722298609=T 7.178975379=T 0.180323956=T pbc="F F F"
C        1.84721527      -0.72710819       0.34698302
C        3.34114871      -0.55602628       0.62381363
C        3.95451402       0.58794507      -0.17774021
C        5.42532310       0.80029766       0.05843371
O        6.12512658       0.13947963       0.81294339
C        6.11065523       1.94584155      -0.71536959
O        5.53762699       2.67380235      -1.50078104
H        1.42821928      -1.55395595       0.93708105
H        1.65760652      -0.94649872      -0.71481867
H        1.28407468       0.18328098       0.60307890
H        3.88012038      -1.48772822       0.39174681
H        3.51073797      -0.37499627       1.69663813
H        3.44861111       1.54994825       0.02506841
H        3.81535771       0.44862084      -1.26580526
H        7.19968246       2.03639729      -0.47605228
