15
Properties=species:S:1:pos:R:3 -1582.6152151252459=T 12.592525=T 13.54046=T -8.9824=T -6.8952=T -8.62=T 0.5926=T -0.939=T 0.541=T 8.13048=T 0.04849=T 3.8298407498=T 5.891566748=T 0.463014901=T pbc="F F F"
C        1.01001790       0.09090853       0.08490889
C        2.46049605       0.01112735       0.03759756
C        3.67472836      -0.10530327      -0.01340327
C        5.10025192      -0.10923221      -0.03388934
C        5.83024262      -1.23300136      -0.18527721
C        5.74419716       1.25881960       0.12689568
O        5.32580940       1.93812266       1.31219474
H        0.66657998       1.13575568       0.08608265
H        0.61624035      -0.39472070       0.99068215
H        0.55969864      -0.40962335      -0.78547573
H        5.35924841      -2.20596304      -0.32377237
H        6.92023313      -1.19068502      -0.17671026
H        5.51881558       1.86513107      -0.77207324
H        6.83464233       1.14830608       0.20183140
H        4.34995815       1.91313798       1.32108835
