15
Properties=species:S:1:pos:R:3 -1612.4768696623294=T 11.57004=T 11.89332=T -7.7713=T -5.7436=T -7.878=T 0.8312=T -0.6913=T 0.44=T 7.42311=T 0.16778=T 4.1923882124=T 11.8131505066=T 0.269380018=T pbc="F F F"
C        1.00654895      -0.03623594      -0.07356389
C        2.50254924       0.06152679      -0.00355086
C        3.21768531       1.19343806       0.24384187
C        4.63838023       1.19655481      -0.04758231
C        5.28564324       0.02078207      -0.19290023
C        4.50007616      -1.21508212       0.12819804
O        3.12169196      -1.11152130      -0.33858998
H        0.70948361      -1.05700527      -0.34169370
H        0.59057123       0.66126432      -0.81389116
H        0.55870003       0.20509257       0.90139025
H        2.68842053       2.11468180       0.48341210
H        5.14129516       2.14937447      -0.22563375
H        6.32332402      -0.05552897      -0.51665808
H        4.89511185      -2.11612090      -0.35716733
H        4.45646848      -1.39149039       1.22399902
