18
Properties=species:S:1:pos:R:3 -1815.0828525975676=T 12.202045=T 12.99314=T -8.539=T -6.4748=T -8.857=T 0.9915=T -0.0805=T 1.432=T 8.4127=T -0.78368=T 6.0013191552=T 0.255563308=T pbc="F F F"
C        0.98233214       0.04268057      -0.14416437
C        2.50166492      -0.03393831       0.07486654
N        2.89108859      -1.26186408       0.82638312
C        3.37084175      -0.85907309       2.17652130
C        4.67263059      -1.56505110       2.55962797
C        3.47107699       0.64760255       2.10414812
C        3.01316545       1.10230047       0.93315559
H        0.64007291      -0.81593152      -0.73796294
H        0.70538386       0.96716017      -0.67372784
H        0.45688918       0.02576649       0.82155628
H        2.98889457      -0.03605732      -0.91757701
H        3.66932419      -1.70778424       0.33781052
H        2.60760255      -1.13359095       2.93377666
H        5.48709339      -1.27994255       1.87540697
H        4.54432320      -2.65696134       2.52086847
H        4.97692521      -1.30008906       3.58252327
H        3.83413146       1.25636660       2.93382867
H        2.94295905       2.14953673       0.63540867
