18
Properties=species:S:1:pos:R:3 -1747.4318623199483=T 11.575147=T 12.71133=T -8.8024=T -6.7769=T -10.232=T 1.0449=T -0.9713=T 0.035=T 10.0505=T 0.59407=T 3.6820246406=T 12.4024807618=T 0.083903531=T pbc="F F F"
C        1.04084594      -0.27893137       0.69885348
C        2.46955760      -0.12764953       1.21370609
N        3.04609688       1.19931485       0.95373701
C        2.37581405       2.25684385       1.71188755
C        4.47853644       1.22405793       1.21582557
C        5.15396160       2.41046845       0.54879534
O        6.19108041       2.91641126       0.93159876
H        0.71353930      -1.32180021       0.81280248
H        0.98332107      -0.01106943      -0.36570168
H        0.32754759       0.34716168       1.25236258
H        3.11182167      -0.86179128       0.70166979
H        2.50431173      -0.37554495       2.29973820
H        1.31657239       2.31556988       1.43281958
H        2.83203870       3.22947357       1.47853568
H        2.44454764       2.10236396       2.81183084
H        4.93801779       0.32928756       0.75723660
H        4.75334652       1.20956676       2.29327552
H        4.62402268       2.77250701      -0.37150340
