15
Properties=species:S:1:pos:R:3 -1455.6318423650728=T 11.338346=T 11.77771=T -9.0791=T -7.1132=T -9.995=T 0.9824=T -0.5138=T 0.725=T 9.47988=T -0.18608=T 4.8884208192=T 6.793502905=T 0.376489268=T pbc="F F F"
O        0.13703012      -0.72474387      -0.96768909
N        0.76299561      -0.87795964       0.31344114
C        2.03701370      -1.60731440       0.16070013
C        1.83732648      -3.05595222      -0.17711201
C        2.30103437      -4.06746828       0.56289216
C        0.80060426       0.33408721       1.02594279
N        0.15971334       1.41691348       0.80639071
H       -0.68391885      -1.24494715      -0.87446164
H        2.57084579      -1.51043460       1.11738153
H        2.64462861      -1.11324062      -0.62170390
H        1.30381725      -3.26172581      -1.11022240
H        2.84691106      -3.89242112       1.49368579
H        2.15768278      -5.10623740       0.26255696
H        1.43742749       0.24193469       1.91738480
H       -0.36506201       1.33230972      -0.07785696
