19
Properties=species:S:1:pos:R:3 -1806.6274661889822=T 12.093348=T 13.18626=T -8.3445=T -6.3247=T -9.776=T 0.9506=T -0.0055=T 3.222=T 8.9956=T -2.91791=T 7.9162209322=T 10.3892332896=T 0.126034266=T pbc="F F F"
C        1.04380512       0.00691894       0.00971855
N        2.49166658       0.01527084       0.09603404
C        3.12480584       1.05008281       0.94753073
C        4.17282119       0.00275546       1.38869003
C        3.15024262      -1.05322327       0.89186449
C        3.63559333      -2.25927413       0.10012265
N        4.28548315      -3.22839323       0.99624373
H        0.70573668      -0.87724331      -0.55064891
H        0.69885492       0.89774395      -0.53639437
H        0.55046319      -0.00293751       1.00771913
H        2.47752715       1.35781969       1.79534834
H        3.46756288       1.94911468       0.41189471
H        5.07693765       0.02873310       0.76349588
H        4.44852430      -0.01843560       2.44904539
H        2.51537117      -1.40220534       1.73474090
H        4.27106665      -1.89299854      -0.73120958
H        2.76269024      -2.75485104      -0.35697017
H        5.16975940      -2.84258016       1.33849655
H        4.53151793      -4.07257734       0.47549791
