14
Properties=species:S:1:pos:R:3 -1365.88078552539=T 12.643809=T 11.49975=T -7.7962=T -5.9226=T -8.375=T 0.597=T -0.9702=T -0.197=T 7.87278=T 0.68584=T 4.5022540236=T 0.553103518=T pbc="F F F"
C        1.26693041      -0.32661670      -0.13405661
N        2.69352648      -0.21760938      -0.39905391
N        3.20483783       1.03314186      -0.33954952
C        4.48004780       1.16903483      -0.12639848
C        5.09021668       2.47627017      -0.12986153
C        6.40169143       2.70185405       0.09268755
H        0.93962483      -1.34398643      -0.38522850
H        0.73587936       0.38392385      -0.77964722
H        1.00163150      -0.11198385       0.91686103
H        3.27016245      -0.95687296       0.02342306
H        5.12659586       0.29027063       0.05865590
H        4.41081958       3.31072993      -0.32758875
H        7.09564377       1.88138332       0.28946861
H        6.81373204       3.71033068       0.08329837
