15
Properties=species:S:1:pos:R:3 -1492.1324820892344=T 10.580356=T 11.07726=T -7.985=T -6.0249=T -9.262=T 0.7745=T -0.2004=T 0.894=T 8.81858=T -0.27765=T 5.0067778548=T 5.7700976638=T 0.168116968=T pbc="F F F"
N        1.32025585      -0.13545534       0.57686568
N        2.35763701       0.08048661      -0.34389567
C        2.87445731       1.24753506      -0.36064816
C        2.54316182       2.48948486       0.43893989
C        3.39271903       3.57576676      -0.23854573
C        4.52429177       2.75275760      -0.86001444
O        3.92660255       1.48962103      -1.22494294
H        0.77539307      -0.92556452       0.23102901
H        0.69039746       0.67145243       0.67738303
H        2.82082488       2.33132868       1.49453622
H        1.46599652       2.71664870       0.42070848
H        2.81314768       4.07536041      -1.02827041
H        3.76130203       4.34182732       0.45589467
H        4.95001353       3.18960622      -1.77215548
H        5.33743950       2.56933417      -0.13502414
