18
Properties=species:S:1:pos:R:3 -1645.567727778828=T 11.028554=T 12.19471=T -8.5992=T -6.4104=T -10.079=T 1.0029=T 0.0566=T 3.433=T 9.82382=T -3.16687=T 8.2029633544=T 12.4663459504=T 0.19883736=T pbc="F F F"
C        1.01597386      -0.10630345       0.02346457
N        2.47346416      -0.01423775       0.06521785
C        2.95179843       1.36522640      -0.01844890
C        4.47730447       1.42096784       0.01414170
N        4.95540218       2.80077013      -0.06516513
C        6.41309919       2.89261916      -0.03005068
H        0.71299821      -1.16258848       0.01317765
H        0.55100197       0.39955605      -0.84970334
H        0.59547828       0.35045724       0.93312799
H        2.86209342      -0.54468723      -0.71936121
H        2.54937409       1.90934279       0.85603421
H        2.58920345       1.90526883      -0.91981280
H        4.87963620       0.87986086      -0.86223391
H        4.84013143       0.87801844       0.91366976
H        4.57056019       3.32734706       0.72388744
H        6.82904702       2.44196847      -0.94483218
H        6.88248227       2.38112075       0.83741891
H        6.71603117       3.94884287      -0.01429194
