15
Properties=species:S:1:pos:R:3 -1596.5432553323292=T 11.824363=T 13.24879=T -9.3386=T -7.4636=T -10.038=T 0.1317=T -1.555=T -0.366=T 9.38768=T 1.03133=T 3.524983973=T 10.1009782382=T 0.465939269=T pbc="F F F"
C        2.66654274      -0.54393299       1.41120521
C        2.39696068      -0.01082252      -0.00347113
C        2.87418523       1.42000947      -0.19822638
O        2.11050854       2.34708930      -0.45689127
C        4.30142689       1.64068790      -0.05985492
C        5.50218717       1.82828066       0.04295493
C        6.92671982       2.07668975       0.15899007
H        2.31977096      -1.58228178       1.50056430
H        2.13749763       0.05669229       2.16458049
H        3.73957571      -0.52185541       1.64852678
H        1.32322411      -0.02429460      -0.23683301
H        2.91879003      -0.64371553      -0.74115723
H        7.14900600       3.15243919       0.11526402
H        7.47330396       1.58069376      -0.65696468
H        7.31732055       1.68123051       1.10827284
