16
Properties=species:S:1:pos:R:3 -1605.3954184137078=T 10.767344=T 11.65232=T -8.8141=T -6.7864=T -10.005=T 0.9754=T -0.2258=T 0.669=T 9.47423=T 0.00623999999999=T 5.4878931292=T 6.1370838252=T 0.160429627=T pbc="F F F"
C        2.64166982      -0.49242585       1.44727015
C        2.59095707       0.04062626       0.00619122
C        3.00108140       1.47589478      -0.11106814
N        4.04669172       1.81593939      -0.78287773
O        4.23404879       3.21007920      -0.71705875
C        3.04576359       3.80791951      -0.10148938
C        2.31688487       2.64417194       0.56909765
H        2.35401351      -1.55230728       1.47327649
H        1.95434677       0.05413214       2.10887315
H        3.65571864      -0.40487235       1.86179578
H        1.56482975      -0.07048823      -0.38613209
H        3.25069266      -0.55169928      -0.64360341
H        2.44325586       4.26537122      -0.90363408
H        3.39142940       4.58875030       0.58764101
H        1.23180850       2.65559572       0.39326708
H        2.47672766       2.59980253       1.65941105
