14
Properties=species:S:1:pos:R:3 -1402.650205971301=T 9.408407=T 9.78165=T -8.5634=T -6.4898=T -9.319=T 0.8106=T -0.1299=T 0.922=T 8.72001=T -0.34126=T 5.192967631=T 12.53560453=T 0.146282523=T pbc="F F F"
C        1.02548309       0.06180004       0.03855791
C        2.55170911      -0.01670769      -0.01495417
C        3.07846441      -1.21270784      -0.86360512
N        3.42948374      -0.66676998      -2.19212021
C        3.43038110       0.61130416      -2.04086647
N        3.14933289       1.11032931      -0.77127031
H        0.68560114       0.97695039       0.54689739
H        0.61829194      -0.79646824       0.59351701
H        0.60101011       0.04673693      -0.97654159
H        2.96346682      -0.03589633       1.00561669
H        2.33167138      -2.01585616      -0.96005856
H        3.98384921      -1.65400883      -0.41392618
H        3.68512969       1.30886730      -2.84332985
H        2.68844538       2.01750695      -0.70985654
