16
Properties=species:S:1:pos:R:3 -1631.5598468029314=T 12.105779=T 13.55908=T -8.9348=T -6.8624=T -9.719=T 0.9954=T 0.0324=T 2.342=T 9.42809=T -1.92561=T 4.4012798252=T 10.5602223822=T 0.300473573=T pbc="F F F"
C        0.96034363       0.04839303       0.23472791
C        2.13464895       0.13976382      -0.05695023
C        3.55227085       0.21893686      -0.39026595
N        4.33079215       0.87828494       0.67166513
C        5.74871642       0.84498098       0.41168071
C        6.33316098       1.98745871      -0.38690919
C        6.60259952       1.87916756       1.09749397
H       -0.07854920      -0.02094405       0.48516267
H        3.67924200       0.80543326      -1.31637521
H        3.91787041      -0.80606589      -0.62113209
H        4.12349613       0.42700835       1.56671598
H        6.21194546      -0.14083888       0.24686485
H        5.63567622       2.76283137      -0.70497890
H        7.14441012       1.76978816      -1.08173430
H        7.59852102       1.58313586       1.42708691
H        6.08384536       2.58405591       1.74715775
