11
Properties=species:S:1:pos:R:3 -1221.7561542598498=T 9.595703=T 9.59498=T -10.1567=T -8.0719=T -10.349=T -1.1167=T -2.9566=T -1.649=T 10.01347=T 2.04238=T 3.1930982482=T 4.6222848702=T 0.307906237=T pbc="F F F"
O        2.50429739      -1.09553760       0.10199449
C        2.07146151       0.04459389       0.01240954
C        2.93905567       1.23770555      -0.00907459
N        2.41844212       2.43007570      -0.10610410
N        3.47761036       3.39552317      -0.10364483
C        4.60315402       2.75345857      -0.00516924
C        4.42877950       1.27679452       0.07018402
H        0.98316899       0.27266072      -0.06027671
H        5.54982919       3.29556493       0.01551458
H        4.91806863       0.73349763      -0.75485173
H        4.82184261       0.83458292       1.00036856
