17
Properties=species:S:1:pos:R:3 -1733.2579451313159=T 12.665377=T 13.01268=T -8.7822=T -6.731=T -8.611=T 0.4847=T -1.0464=T 0.232=T 8.04627=T 0.28947=T 5.2237285576=T 0.727228467=T pbc="F F F"
O        1.17149785       1.03737975       1.07217203
C        2.58959893       1.18093135       1.24518192
C        3.22650935       1.16835542      -0.14602767
C        4.72285840       1.38833961      -0.10078911
C        5.57847934       0.34556585      -0.17876253
C        5.25407247       2.74680009       0.04549877
C        4.54155069       3.88827080       0.07144310
H        0.76435245       1.02205973       1.95455378
H        3.00312348       0.34742683       1.84238749
H        2.83120959       2.12412750       1.76725470
H        2.73805325       1.94287318      -0.75828051
H        3.00610528       0.20066387      -0.61967183
H        5.22133613      -0.67788721      -0.30481619
H        6.65901330       0.49375020      -0.12527970
H        6.34469718       2.81130460       0.12693871
H        3.45327715       3.90039629      -0.01164003
H        5.03674515       4.85437217       0.17007705
