12
Properties=species:S:1:pos:R:3 -1188.346621276785=T 10.235539=T 11.623=T -11.5907=T -9.6765=T -11.043=T 0.3813=T -1.5732=T -1.618=T 10.44639=T 0.67626=T 4.5235300212=T 8.515172501=T 0.18034963=T pbc="F F F"
C        0.99572912      -0.03824082       0.01011694
C        2.51670549       0.08628542       0.00172224
S        2.98822771       1.82861712      -0.00382559
O        2.63326111       2.43801939      -1.28359519
O        2.64698342       2.44244007       1.27756058
C        4.76724191       1.64763066      -0.01303580
N        5.92950798       1.52809376      -0.01905900
H        0.73134183      -1.10348341       0.01335306
H        0.55280507       0.42264058      -0.88140183
H        0.56241644       0.42568291       0.90477561
H        2.97481908      -0.34273087      -0.90037989
H        2.98450086      -0.33960483       0.90032888
