20
Properties=species:S:1:pos:R:3 -1943.152745132063=T 12.414358=T 13.73995=T -8.5518=T -6.5447=T -10.095=T 0.8757=T -0.041=T 3.007=T 9.3398=T -2.68505=T 8.1384038442=T 10.0355756232=T 0.08934113=T pbc="F F F"
C        0.98737610      -0.05451936       0.19299011
C        2.49581319       0.03562118       0.04228915
C        3.26571412       1.13337392       0.81743564
C        4.30295792       0.03107788       1.18683713
C        4.71464406      -0.06648761       2.65171782
C        5.52887531       0.04662192       0.26815138
N        3.27324686      -0.99422669       0.79556981
H        0.59612756      -0.96366417      -0.28829020
H        0.49607070       0.81233405      -0.27539833
H        0.71035350      -0.08667399       1.25661404
H        2.75710550       0.06826306      -1.03344054
H        2.70600393       1.48961891       1.69430593
H        3.63659859       1.99241371       0.24361510
H        3.82649580      -0.10000024       3.29679906
H        5.33469917       0.79475567       2.94539915
H        5.30023263      -0.98167293       2.83164267
H        5.23876660       0.12949487      -0.78999351
H        6.11638107      -0.87699591       0.39279077
H        6.18960219       0.89540608       0.50407857
H        3.64191519      -1.75613035       0.21840625
