17
Properties=species:S:1:pos:R:3 -1659.9063400048262=T 13.298615=T 13.83403=T -8.2881=T -6.3603=T -8.997=T 1.5434=T -0.1797=T 0.673=T 8.48644=T -0.13073=T 4.8099500798=T 5.3525872074=T 0.451998237=T pbc="F F F"
C        0.74215488       1.00818682       0.85107108
C        2.23675661       0.95995882       0.77623347
C        2.97403276       1.35854583      -0.26955707
C        4.47054127       1.27532145      -0.32512306
N        5.04988526       2.60414091      -0.53566341
N        6.34802649       2.62047977      -0.93188034
C        7.05825428       3.66750406      -0.69054904
H        0.32027158       0.00025572       0.99397702
H        0.30448556       1.43677782      -0.06110732
H        0.40742726       1.61008062       1.71111652
H        2.75645256       0.55202901       1.65293772
H        2.48221711       1.77925775      -1.15455381
H        4.79817433       0.66596412      -1.18214114
H        4.85972377       0.78918509       0.59071105
H        4.79448797       3.28897507       0.18916238
H        8.07910390       3.68378623      -1.07249642
H        6.68004441       4.54119091      -0.13333763
