15
Properties=species:S:1:pos:R:3 -1570.0915938842588=T 12.567988=T 13.01473=T -8.2025=T -6.236=T -8.389=T 0.9445=T -0.6358=T 0.562=T 7.93809=T -0.011=T 4.1039118028=T 5.6783356252=T 0.37368722=T pbc="F F F"
C        1.97016152      -0.78929175      -0.59094863
O        1.67369845       0.44676355       0.07343632
C        2.59210109       1.47317782      -0.06411662
C        2.19775203       2.75240485       0.14530809
C        0.80200648       3.17476006       0.46781558
C        3.94490906       1.14367007      -0.36998265
C        5.09364571       0.84442297      -0.64085540
H        1.13269269      -1.45559864      -0.35432404
H        2.90922212      -1.23010291      -0.22434802
H        2.03480286      -0.65019285      -1.68188402
H        2.97715679       3.51364858       0.09060077
H        0.09292917       2.34782177       0.34220028
H        0.48856536       4.01296701      -0.17396652
H        0.72544887       3.53197535       1.50876818
H        6.11015777       0.59700412      -0.86826331
