14
Properties=species:S:1:pos:R:3 -1403.1359585876505=T 8.775031=T 9.6916=T -9.7024=T -7.5791=T -10.808=T 0.929=T -0.9391=T 0.01=T 9.8714=T 0.69765=T 3.738239893=T 12.0952310552=T 0.198949658=T pbc="F F F"
C        1.54862352      -0.82605576      -0.44147743
C        3.02966908      -0.55301070      -0.30297189
O        3.86075057      -1.44821554      -0.42871258
C        3.44210579       0.87803113       0.00676154
C        4.94300343       1.12701627      -0.15754908
O        5.72919771       0.34597443       0.73660075
H        0.99244589      -0.39597129       0.40437487
H        1.36523854      -1.90394601      -0.50829743
H        1.16966958      -0.33418540      -1.35116782
H        3.13820405       1.08620876       1.04861384
H        2.85496387       1.56905199      -0.62277001
H        5.16981274       2.18064084       0.06271234
H        5.23066942       0.93731941      -1.20960801
H        5.52912580      -0.58127812       0.49570091
