19
Properties=species:S:1:pos:R:3 -1880.2018944345205=T 12.440699=T 13.64832=T -9.318=T -7.1648=T -9.242=T 0.91=T -0.0873=T 1.268=T 8.69531=T -0.63064=T 6.3179298048=T 0.385493862=T pbc="F F F"
C        0.88501026       0.95216150      -1.06658022
C        2.37482582       0.78870891      -1.06614286
C        3.19548153       1.26419428      -0.11880555
C        4.70348511       1.14884416      -0.06428915
C        5.12761322       0.46204089       1.23899181
C        5.31902445       0.43806787      -1.27407436
O        5.25285398       2.49549948       0.03754276
H        0.54109445       1.46467933      -1.97941034
H        0.53996661       1.52902929      -0.19741678
H        0.37966394      -0.02705413      -1.05123656
H        2.79564080       0.22855995      -1.90850342
H        2.76932283       1.82291474       0.72428618
H        4.70325451       0.99043248       2.10367002
H        6.22316293       0.47623375       1.32901802
H        4.78072932      -0.57973423       1.25699286
H        5.04979894       0.94397315      -2.21322033
H        4.98995699      -0.60900082      -1.34074072
H        6.41309087       0.45293157      -1.18006233
H        4.90158346       2.99872784      -0.71911903
