12
Properties=species:S:1:pos:R:3 -1190.75260336894=T 9.154331=T 10.17308=T -9.299=T -6.9127=T -9.212=T 0.8951=T -0.1242=T 2.518=T 8.84127=T -2.04861=T 4.1753401374=T 10.3018355582=T 0.893616066=T pbc="F F F"
C        0.96612543      -0.01349687      -0.00160811
C        2.42143685      -0.00635710      -0.00530499
C        3.63721137       0.00135484       0.00638327
C        5.09716679       0.01459984      -0.01462235
N        5.63091461       1.39261820       0.02394750
H        0.56875417       1.01239473       0.01393324
H        0.57280380      -0.53590243       0.88327313
H        0.56425482      -0.51465436      -0.89489721
H        5.43472909      -0.57565389      -0.89162397
H        5.47391781      -0.51412070       0.87768173
H        5.26751943       1.91248757      -0.77934886
H        6.64705585       1.35550019      -0.09176337
