15
Properties=species:S:1:pos:R:3 -1562.0680884773394=T 10.659205=T 11.46278=T -10.2484=T -7.9848=T -9.913=T 1.2959=T -0.4423=T -0.156=T 10.72229=T 0.70217=T 4.3659562138=T 6.7589976012=T 0.441440264=T pbc="F F F"
C        1.00516190      -0.17023683       0.86649693
C        1.89801163       0.49809536      -0.17387885
O        1.03766532       1.05990615      -1.24082427
C        0.78396900       0.25070160      -2.29243010
O        1.17841822      -0.88566431      -2.45203127
C        2.68633379       1.64810703       0.37704492
C        4.02100950       1.67285048       0.43391387
H        1.62489994      -0.58324198       1.67395484
H        0.43365158      -0.99022334       0.41236244
H        0.30547642       0.55681295       1.30212694
H        2.56142827      -0.24251257      -0.64273318
H        0.14403114       0.80463271      -3.00784472
H        2.09892071       2.48331071       0.77314949
H        4.62312953       0.84959609       0.04146667
H        4.55724305       2.51226593       0.87830630
