12
Properties=species:S:1:pos:R:3 -1352.3231090523595=T 9.580716=T 10.34443=T -9.1335=T -6.968=T -9.458=T 1.1295=T -0.4444=T 0.832=T 9.03517=T -0.92983=T 5.3997886776=T 5.9489846646=T 0.203232732=T pbc="F F F"
N        0.96667361      -0.01177263       0.06973076
C        2.13149261       0.00957251       0.02454736
C        3.60137679      -0.00641850      -0.00064001
C        4.17125179      -1.27395323      -0.70504220
C        4.66666529      -0.68675560      -2.00567577
C        4.59115779       0.64559647      -1.93787360
O        4.07528880       1.15076564      -0.75929267
H        3.96435794       0.11135394       1.03036760
H        3.39521852      -2.04081555      -0.83442793
H        4.98695924      -1.72000596      -0.11332949
H        5.05751512      -1.26097437      -2.83993819
H        4.88383249       1.40886728      -2.65529584
