15
Properties=species:S:1:pos:R:3 -1588.580244979123=T 11.489108=T 12.891=T -9.737=T -7.8368=T -10.741=T -0.0432=T -1.8445=T -0.564=T 9.67219=T 1.18642=T 3.566271311=T 11.5426378518=T 0.473504892=T pbc="F F F"
C        1.68951173      -0.71487267       0.20433293
C        3.17638425      -0.43130894      -0.01428916
C        3.50373947       1.05579250       0.09265173
C        4.96985398       1.39043325      -0.11016041
O        5.84000652       0.55319866      -0.32120239
C        5.30044605       2.80744907      -0.03751054
C        5.56783771       3.99188295       0.02489432
H        1.47566767      -1.78959238       0.12100775
H        1.06672482      -0.19334160      -0.53874582
H        1.35979376      -0.38656552       1.20208616
H        3.49342446      -0.79859397      -1.00248052
H        3.78263431      -0.98648403       0.71772185
H        3.20925738       1.46357599       1.07731386
H        2.92606066       1.65066131      -0.63825479
H        5.82299721       5.03167539       0.07675503
