16
Properties=species:S:1:pos:R:3 -1679.6620031251246=T 11.193738=T 12.56463=T -11.0308=T -8.7039=T -11.448=T 0.784=T -0.2128=T 1.521=T 11.05042=T -1.11968=T 5.3414532646=T 12.3031555772=T 0.24888378=T pbc="F F F"
C        0.92216942      -0.00588630       0.04623847
C        2.44029898       0.01198116       0.02802026
C        3.19036784       1.06746075       0.88745461
C        4.24958065      -0.02450457       1.26013509
C        3.21485613      -1.10104872       0.78735804
C        5.45109383       0.02667798       0.44273226
N        6.40913444       0.06802272      -0.22395030
H        0.52680206      -0.87113964      -0.50681211
H        0.50720321       0.90184056      -0.41711413
H        0.54052416      -0.06229791       1.07794075
H        2.80778546       0.06409115      -1.00952667
H        2.61337717       1.34729406       1.78102334
H        3.56081524       1.97455002       0.39430133
H        4.54796173      -0.06985434       2.31713475
H        3.60519084      -1.95045265       0.21344033
H        2.64514882      -1.47464428       1.65081400
