21
Properties=species:S:1:pos:R:3 -2009.0983663740274=T 12.277942=T 13.80262=T -9.3805=T -7.2971=T -11.407=T 0.9437=T 0.0305=T 2.999=T 10.7094=T -2.68368=T 9.1705253012=T 11.3383213224=T 0.12794298=T pbc="F F F"
C        1.34985994      -1.26456559      -0.01101119
C        0.76278925       0.14721468      -0.05799511
C        1.21351871       1.02750187       1.10982853
C        0.80999970       2.50616341       0.96160255
C       -0.69890543       2.76028569       0.91311650
O        0.67692657       0.43315571       2.30634184
C        1.33080713       0.84542183       3.49658264
H        0.99515581      -1.87049532      -0.85686278
H        1.06144009      -1.77352720       0.91872133
H        2.45000491      -1.23915613      -0.05572560
H       -0.33767426       0.09379677      -0.05463235
H        1.05395160       0.64810189      -0.99615139
H        2.32287365       0.98326156       1.17081524
H        1.29283480       2.89433437       0.04886657
H        1.25145180       3.07738626       1.79471988
H       -1.15937570       2.32909974       0.01271506
H       -0.91129441       3.83877006       0.90762474
H       -1.19828646       2.31960494       1.78770568
H        0.92019163       0.23570932       4.31256815
H        1.15597357       1.91087379       3.73395032
H        2.42298712       0.67438235       3.43710938
