14
Properties=species:S:1:pos:R:3 -1427.919087737715=T 9.481789=T 10.32344=T -9.135=T -6.937=T -10.408=T 1.5975=T -0.3617=T -0.209=T 10.85818=T 0.73336=T 4.3805865618=T 12.7087633776=T 0.135886863=T pbc="F F F"
O        1.90456858       0.32571643       1.17516483
C        2.30282904       1.13748991       1.98311309
O        3.49757247       1.77370565       1.95435032
C        4.35350135       1.43467315       0.83244879
C        5.67742656       2.20750248       0.80095815
N        6.42568374       0.92823321       0.53571350
C        5.19527830       0.14828541       0.91387738
H        1.74090724       1.48206678       2.87346406
H        3.76679231       1.50189157      -0.09409820
H        5.94768438       2.61393893       1.78819077
H        5.78443873       2.99650221       0.04391776
H        6.58666350       0.83472962      -0.47048813
H        4.91343824      -0.67421020       0.24364041
H        5.28220556      -0.23431514       1.94324726
