17
Properties=species:S:1:pos:R:3 -1620.4325428702048=T 10.836852=T 11.8442=T -8.4928=T -6.3435=T -9.826=T 0.7405=T -0.2563=T 2.835=T 9.59236=T -2.47849=T 7.743111679=T 11.3370566652=T 0.091574774=T pbc="F F F"
C        0.95516148       0.02859550      -0.05907318
C        2.45899993       0.08994819       0.04593427
O        2.94135431       0.29937119       1.36794754
C        3.36756404      -0.72260468      -0.88354111
N        2.91167406      -1.57789310      -1.95447053
C        3.28163476       0.79889877      -1.00504738
N        4.32069854       1.71317000      -0.60680317
H        0.63043212      -0.08693493      -1.10221078
H        0.51053397       0.95071383       0.34151318
H        0.55294922      -0.82279169       0.51464038
H        2.91257968      -0.55588737       1.83262921
H        4.28347583      -1.06833186      -0.38835015
H        2.47237591      -1.03675550      -2.70094488
H        2.22922265      -2.26816270      -1.63273770
H        2.69897057       1.14256072      -1.87061635
H        5.18770640       1.52000089      -1.11267925
H        4.50751653       1.58823276       0.39157989
