16
Properties=species:S:1:pos:R:3 -1529.8154312395218=T 10.795292=T 11.55438=T -9.7049=T -7.6119=T -10.798=T 1.3095=T -0.4668=T 0.357=T 10.30778=T 0.24762=T 5.4955430654=T 6.6501998862=T 0.195266696=T pbc="F F F"
C        2.72760858      -0.82228145      -0.73220164
O        2.50301484       0.05131618       0.37311389
C        2.98010835       1.38862014       0.14040114
C        2.36215986       2.27300710       1.21728652
C        4.48404553       1.42095947       0.19511169
N        5.14667261       1.74619036      -0.85262332
O        6.54203141       1.71485017      -0.60891494
H        2.30239545      -1.79388840      -0.45197301
H        3.80116984      -0.94673748      -0.95485330
H        2.22120124      -0.45199329      -1.64274798
H        2.66382227       1.72849995      -0.86446813
H        2.67291400       1.93628866       2.21641970
H        1.26701430       2.22136501       1.15879690
H        2.67794268       3.31616612       1.08322344
H        4.98339259       1.14328514       1.13494080
H        6.90226646       1.98089234      -1.47436176
