18
Properties=species:S:1:pos:R:3 -1740.5482027491253=T 11.358268=T 12.44171=T -8.609=T -6.5781=T -10.014=T 0.9399=T 0.0145=T 3.066=T 9.21775=T -2.82033=T 7.8965071582=T 11.9637686994=T 0.101573175=T pbc="F F F"
C        2.31963060      -0.49389316      -1.39947900
C        2.40109650       0.07413785       0.01369241
N        3.19186406       1.29448484       0.06322775
C        2.62187870       2.52933097      -0.53837241
C        3.28123746       3.33915735       0.60795306
O        4.55134830       3.89848174       0.30349137
C        3.31560529       1.98890665       1.36934691
H        1.73162860      -1.42212496      -1.41084526
H        3.32439207      -0.71078349      -1.78859736
H        1.83406787       0.21569733      -2.08596545
H        2.87740569      -0.65854415       0.68618244
H        1.37247829       0.25308358       0.40861651
H        1.51330506       2.56753413      -0.48025720
H        2.94611052       2.75787515      -1.56535173
H        2.68985461       4.14853401       1.05188222
H        5.08652824       3.18569777      -0.09300575
H        4.22383292       1.75606373       1.94743061
H        2.42135523       1.86330065       2.01526088
