16
Properties=species:S:1:pos:R:3 -1598.5844366489246=T 11.82923=T 12.8634=T -9.2957=T -7.0941=T -9.298=T 1.0566=T -0.3523=T 1.051=T 8.79902=T -0.43069=T 6.2313379824=T 0.451529605=T pbc="F F F"
N        2.31925552      -0.78050090      -1.46433626
C        2.82943264      -0.33060894      -0.15816420
C        2.87161161       1.16770938      -0.10762450
C        3.94929789       1.88897194       0.23688567
C        3.96299297       3.36082595       0.30290060
C        4.87053482       4.09058576       1.21478302
O        5.16637754       4.02147692      -0.18681974
H        2.21517215      -1.79755485      -1.46829388
H        2.99878074      -0.55180617      -2.19469813
H        3.82534853      -0.73341201       0.11628354
H        2.11947833      -0.69209580       0.60714734
H        1.94153252       1.67548193      -0.38855592
H        4.89144022       1.38765064       0.48811301
H        3.03356902       3.86403441       0.00885999
H        5.54339103       3.52045170       1.86549627
H        4.57155448       5.07688004       1.58677316
