12
Properties=species:S:1:pos:R:3 -1366.3675909251017=T 11.191204=T 10.83419=T -8.619=T -6.651=T -8.112=T 0.2117=T -1.378=T -0.295=T 7.67803=T 0.91777=T 3.9392459962=T 0.34046797=T pbc="F F F"
C        2.79858428      -1.12843606       0.42927956
C        2.24034622       0.06849805       0.17072745
C        2.93855194       1.32436155       0.07134388
C        2.53105090       2.61221515      -0.18075126
N        3.62263166       3.46812669      -0.16598797
C        4.63182403       2.68627878       0.08895655
O        4.31274223       1.36756020       0.24857703
H        2.18607143      -2.02708688       0.48519810
H        3.87159641      -1.23651121       0.58938063
H        1.16116240       0.14531700       0.01448308
H        1.52361631       2.97058098      -0.37049400
H        5.68114218       2.94636576       0.18936697
