17
Properties=species:S:1:pos:R:3 -1614.4725988983664=T 11.535952=T 12.47491=T -8.3095=T -6.2264=T -9.51=T 1.0225=T -0.0109=T 0.682=T 9.13686=T -0.16246=T 5.1077024588=T 11.5095955828=T 0.23220933=T pbc="F F F"
C        1.20999781       2.35594838       2.02295709
C        0.81594904       1.15949294       1.15435573
C        1.98609276       0.66073737       0.32475070
O        1.52761679      -0.46074166      -0.46694132
C        2.46941789      -1.05929094      -1.23890682
N        3.68516513      -0.66917478      -1.29604842
N        4.56983924      -1.44377269      -2.06197546
H        0.35817670       2.70263793       2.62368568
H        1.55168325       3.20334968       1.40945447
H        2.02400212       2.09788794       2.71725084
H       -0.01099919       1.43469032       0.48052958
H        0.44934442       0.33529229       1.78660264
H        2.82782918       0.33107136       0.95620987
H        2.37203854       1.44212077      -0.35204363
H        2.04152930      -1.91273302      -1.78673920
H        5.29877163      -0.81927010      -2.40790194
H        4.11328538      -1.88754580      -2.86989981
