20
Properties=species:S:1:pos:R:3 -1935.1812036148851=T 12.26513=T 13.70897=T -9.3278=T -7.1977=T -10.913=T 0.9284=T 0.0329=T 2.902=T 10.24733=T -2.56704=T 8.8054981186=T 10.8072768858=T 0.119023221=T pbc="F F F"
C        3.67406340      -0.41107610      -0.84101709
C        2.81731132       0.08512429       0.32653020
C        3.09049559       1.53548059       0.76558300
C        2.08079407       1.99290806       1.82600156
C        4.50552554       1.71459494       1.28741987
C        5.64247199       2.15194135       0.43178726
N        5.00337914       3.10757457       1.36475531
H        3.39253485      -1.43424773      -1.12882769
H        4.74360279      -0.41887068      -0.58760608
H        3.54672879       0.23005034      -1.72713330
H        2.95530515      -0.58131746       1.19744558
H        1.75122495       0.00480232       0.05511558
H        2.98666857       2.19498272      -0.11572983
H        2.13786566       1.35710740       2.72466758
H        1.05094194       1.93706733       1.44364888
H        2.28177835       3.03037885       2.12710424
H        4.76431882       1.05082519       2.12356990
H        5.46517151       2.36788420      -0.62513927
H        6.64185391       1.77278652       0.66178948
H        5.59336367       3.22063327       2.19474484
