16
Properties=species:S:1:pos:R:3 -1682.5285875782133=T 11.903029=T 13.06931=T -9.4341=T -7.3684=T -9.163=T 0.8676=T -0.3377=T 0.872=T 8.58852=T -0.28806=T 5.3561580042=T 11.4588977074=T 0.29586788=T pbc="F F F"
C        0.83998309      -0.24917273       0.19214890
C        2.32552898      -0.06418970       0.17594153
C        3.01391078       1.07077442      -0.04079608
C        2.42171425       2.42150450      -0.32901016
C        4.53585036       1.03470387       0.01807951
C        5.16768926       1.42616977      -1.24411668
N        5.65938453       1.73949269      -2.25466418
H        0.53275051      -0.97721151      -0.57549216
H        0.28603523       0.68046738       0.01421319
H        0.51036211      -0.65970837       1.15993219
H        2.90628250      -0.97477644       0.36438442
H        1.32700608       2.40321039      -0.36350631
H        2.78570014       2.80758709      -1.29460479
H        2.72554132       3.15311463       0.43781462
H        4.88965432       0.02713295       0.28276692
H        4.90557653       1.72318106       0.79871908
