14
Properties=species:S:1:pos:R:3 -1451.9545084229824=T 10.120539=T 10.74716=T -8.9415=T -6.7802=T -8.593=T 0.7795=T -0.2072=T 1.329=T 8.11729=T -0.69022=T 5.5154180212=T 11.3685367106=T 0.239226095=T pbc="F F F"
O        0.87963831      -0.22933732      -0.30848175
C        2.17030108       0.21050108       0.06094748
C        3.39073838      -0.63565410      -0.41495899
N        4.24614341       0.62258348      -0.24226485
C        2.97663343       1.29008203      -0.76770043
C        2.93340456       0.68436589      -2.17078595
C        3.20823962      -0.60801963      -1.93624255
H        0.22796243       0.25155143       0.22982382
H        2.22489404       0.42405240       1.14476483
H        3.71206832      -1.56063297       0.07772550
H        4.29539026       0.81748559       0.77260725
H        2.86504054       2.37298816      -0.63494571
H        2.72054069       1.20562221      -3.09982737
H        3.28942493      -1.45192825      -2.61531128
