15
Properties=species:S:1:pos:R:3 -1491.3868960760776=T 10.62106=T 11.16215=T -8.8931=T -6.6845=T -9.372=T 0.9373=T 0.0065=T 1.375=T 8.83632=T -0.79828=T 6.586384292=T 0.475038985=T pbc="F F F"
C        0.98405556      -0.33290046      -0.16712119
C        1.67348912       0.58653665       0.51940260
C        2.75430550       1.44420756      -0.05072962
C        2.62478192       2.96039284       0.30076177
N        3.56113494       2.75576792       1.43613927
C        4.05345803       1.49897705       0.81446261
H        0.20357741      -0.93120772       0.30496173
H        1.17838981      -0.51734604      -1.22710252
H        1.45486074       0.74655876       1.58206493
H        2.90621388       1.21901761      -1.11513565
H        1.62578233       3.32400626       0.58872971
H        3.01909262       3.59336155      -0.51589426
H        4.26498487       3.48676991       1.55827243
H        4.95063358       1.61787258       0.17884809
H        4.21939968       0.67095554       1.52171009
