13
Properties=species:S:1:pos:R:3 -1380.1071365495154=T 10.0038=T 10.43303=T -8.1256=T -6.1023=T -8.313=T 0.5536=T -0.4208=T 0.781=T 7.93127=T -0.15597=T 4.707562441=T 6.8132662734=T 0.287674676=T pbc="F F F"
C        3.28133111      -1.15051104       0.49918724
O        2.46080034      -0.00528735       0.26542393
C        3.10267544       1.18080403       0.13862667
N        2.47187517       2.31437930      -0.07145209
C        3.47412231       3.26778085      -0.13979529
C        4.71378059       2.70358206       0.03050608
N        4.46723975       1.34168706       0.21192785
H        2.59568791      -2.00086039       0.57541924
H        3.84310497      -1.05833557       1.44441024
H        3.97702433      -1.32672219      -0.33903362
H        3.23897296       4.31447201      -0.30919005
H        5.71874349       3.10922363       0.04274827
H        5.16751162       0.62485760       0.36529153
