12
Properties=species:S:1:pos:R:3 -1174.5293417175512=T 8.069913=T 8.48143=T -9.2259=T -6.8844=T -9.047=T 1.0504=T 0.1885=T 1.465=T 8.57931=T -0.87935=T 6.3306383698=T 0.407044577=T pbc="F F F"
C        0.93796057      -0.01561015       0.03648973
C        2.43300816       0.03283871       0.12976908
C        3.18892263       1.10945434      -0.12583363
C        4.68414524       1.15878815      -0.03717005
H        0.60828620      -0.77805254      -0.68810584
H        0.52131482       0.95306027      -0.27485230
H        0.48394163      -0.28912154       1.00285696
H        2.93246715      -0.89693336       0.43146271
H        2.68830636       2.03842740      -0.42768002
H        5.10286949       0.18917663       0.26790370
H        5.01695675       1.91890782       0.68824302
H        5.13253099       1.43559427      -1.00556333
