13
Properties=species:S:1:pos:R:3 -1358.8938996144996=T 9.545107=T 10.06613=T -8.5746=T -6.5095=T -9.231=T 0.8319=T -0.0816=T 0.741=T 8.71424=T -0.14491=T 4.965081363=T 12.1878361986=T 0.145771327=T pbc="F F F"
O        1.28045060       0.37962723       0.94822659
C        2.49585119       0.18392705       0.26551960
C        2.60917436       0.95957318      -1.01001560
N        3.96333564       1.14982019      -1.48007920
C        4.46678587      -0.11445062      -1.77661840
N        3.69040437      -1.12488419      -1.54679995
C        2.45323706      -0.59205825      -1.04101653
H        1.01849224      -0.47525296       1.33531673
H        3.39699725       0.08389358       0.88408953
H        1.84189649       1.68272844      -1.28498995
H        4.18569845       1.93844537      -2.08320233
H        5.48431971      -0.21065686      -2.15967615
H        1.52741676      -1.11000213      -1.30150435
