13
Properties=species:S:1:pos:R:3 -1360.9296917197876=T 9.948584=T 10.42907=T -8.4033=T -6.4058=T -8.888=T 0.8188=T -0.3952=T -0.095=T 8.4221=T 0.6448=T 4.5525427452=T 6.2580197696=T 0.287155612=T pbc="F F F"
C        0.95038891       0.06783149      -0.03094899
C        2.44107672      -0.00656151      -0.00302436
N        3.17425677       1.09234441       0.07363493
O        4.50875782       0.66874347       0.06596233
C        4.53464391      -0.69221205      -0.00330966
C        3.25808645      -1.18454993      -0.05192841
N        2.79146655      -2.49744848      -0.22478617
H        0.62935016       1.11603587      -0.02547763
H        0.50688476      -0.43169628       0.84439494
H        0.55133571      -0.42003980      -0.93251198
H        5.51832358      -1.15055076      -0.01800864
H        3.48996149      -3.20522287      -0.00575181
H        1.94047716      -2.68724356       0.30346545
