17
Properties=species:S:1:pos:R:3 -1718.7179608621245=T 11.678485=T 12.79521=T -9.9536=T -7.6993=T -9.842=T 0.8677=T -0.0307=T 2.2=T 9.38949=T -1.78513=T 4.319734233=T 10.7995277608=T 0.310290145=T pbc="F F F"
C        0.95648787      -0.00315453      -0.01943986
C        2.49813215      -0.02300228       0.03656726
C        2.98565909      -0.76055876       1.30165267
C        3.03621836      -0.73635729      -1.23855052
O        4.45421722      -0.74522100      -1.33600750
C        3.02105800       1.34919251       0.02468513
C        3.49897290       2.46536013      -0.03510694
H        0.59782112       0.53121719      -0.90998499
H        0.54337538       0.49408118       0.86834657
H        0.56972700      -1.03285390      -0.04841346
H        2.67261892      -0.22758951       2.20947142
H        4.07955893      -0.84580169       1.30069829
H        2.55754683      -1.77381269       1.32645169
H        2.57524297      -0.26517802      -2.12703739
H        2.72506676      -1.79211672      -1.20772638
H        4.74069200       0.18877743      -1.32494085
H        3.89708451       3.45948795      -0.05808515
