14
Properties=species:S:1:pos:R:3 -1487.109750824693=T 11.327014=T 12.11674=T -10.1789=T -8.1076=T -9.894=T -0.0202=T -1.7402=T -0.268=T 9.40604=T 0.77768=T 5.0272975378=T 6.513480524=T 0.286393207=T pbc="F F F"
C        0.85021277      -0.21378905      -0.12669548
C        2.35134952      -0.01817083       0.08163828
O        3.12854804      -0.77363594      -0.86710064
C        2.73945930       1.43362911       0.01977793
C        3.31983642       2.10251744       1.03362693
C        3.68161290       3.47666871       0.95514789
N        3.98486869       4.60637024       0.91891010
H        0.27253598       0.29997182       0.65440388
H        0.60767568      -1.28466152      -0.09909158
H        0.53309580       0.19234557      -1.10046356
H        2.64455626      -0.42797222       1.06132602
H        2.78568331      -0.58135337      -1.75956173
H        2.53627994       1.95636853      -0.92127566
H        3.53958539       1.60222150       1.98123762
