13
Properties=species:S:1:pos:R:3 -1367.0952190354808=T 10.74355=T 10.71162=T -9.269=T -7.3319=T -9.626=T 0.1942=T -1.5796=T -0.378=T 9.92463=T 0.9619=T 3.8471491954=T 5.8325618106=T 0.467681213=T pbc="F F F"
C        2.47593253      -1.11530890       0.09207324
C        2.17032494       0.18796909       0.10644959
N        2.97291184       1.29814418      -0.26825232
C        2.36816509       2.59752838      -0.16325015
N        2.85872663       3.73648710      -0.43071858
C        4.28530038       1.13311490      -0.71117240
O        5.03018621       2.04011478      -1.05213832
H        1.71894169      -1.82344070       0.42219783
H        3.43093731      -1.52824826      -0.22652547
H        1.18133555       0.50484785       0.44242640
H        1.33632110       2.51466023       0.20746180
H        3.82862205       3.64964658      -0.76614340
H        4.60055467       0.07192477      -0.72407823
