14
Properties=species:S:1:pos:R:3 -1522.8744773914984=T 10.545344=T 11.09383=T -9.2047=T -7.2799=T -9.691=T 0.787=T -0.8215=T -0.213=T 9.18414=T 0.71719=T 4.1864988774=T 5.3459911522=T 0.303333196=T pbc="F F F"
C        0.98657303       0.04166896       0.03977296
C        2.47162967      -0.05120807      -0.02429543
C        3.27736157      -1.12871198      -0.05937725
C        4.72178946      -0.71623620      -0.11953757
N        4.63120437       0.72738645      -0.11427230
C        3.32636591       1.18561434      -0.06009079
O        2.96126318       2.35827901      -0.04572259
H        0.51669510      -0.94960333       0.02620937
H        0.60290110       0.63278030      -0.80488978
H        0.67419686       0.57242123       0.95161334
H        2.97408614      -2.17512486      -0.04762522
H        5.28991470      -1.10013462       0.74757728
H        5.21536119      -1.09829449      -1.03187874
H        5.42298771       1.35942325      -0.14957329
