14
Properties=species:S:1:pos:R:3 -1536.0497180249956=T 12.630036=T 13.22169=T -9.9657=T -7.8831=T -9.529=T -0.0092=T -1.6905=T -0.282=T 9.06604=T 0.81476=T 5.0140930288=T 10.7918902232=T 0.402878203=T pbc="F F F"
C        1.55702944      -0.67047084       1.11459517
C        2.30809462      -0.33389569       0.06111139
C        3.01313435       0.99185717      -0.10254098
C        4.50312437       0.82617976      -0.16184790
C        5.26615800       1.17478029      -1.21641579
C        6.67781818       0.99635587      -1.24691958
N        7.83943312       0.86497396      -1.30266747
H        1.07072624      -1.64464956       1.17759962
H        1.39812153       0.01954011       1.94735030
H        2.45094116      -1.05133854      -0.75390287
H        2.75624948       1.64140058       0.75178223
H        2.66125805       1.49645114      -1.01790563
H        4.98083068       0.37367078       0.71225242
H        4.82075079       1.62301495      -2.10944092
