14
Properties=species:S:1:pos:R:3 -1495.0702970908521=T 13.296367=T 14.03362=T -8.6118=T -6.606=T -8.444=T 0.6203=T -0.9662=T 0.541=T 8.01041=T 0.00181000000001=T 3.8416318184=T 5.9284401844=T 0.493661251=T pbc="F F F"
C        0.90338236       0.05478054      -0.17038357
C        2.22082194       0.07971322       0.11521207
C        3.04131719       1.23205657       0.06212359
C        3.77442391       2.20832909       0.03046901
C        4.65319507       3.33995491      -0.02436861
C        4.68855991       4.26048392      -1.21065343
N        4.03534618       4.70065792       0.02996285
H        0.33812287      -0.87419949      -0.10296250
H        0.37015783       0.95696940      -0.47155181
H        2.71911753      -0.84816043       0.41706533
H        5.60730261       3.20649112       0.49598350
H        4.00400712       4.06392787      -2.03774857
H        5.66056635       4.67592003      -1.48946722
H        4.66659913       5.31712533       0.55303937
