14
Properties=species:S:1:pos:R:3 -1474.0642268617812=T 10.22965=T 10.68722=T -9.1155=T -7.0176=T -9.381=T 1.0101=T -0.5732=T 0.971=T 8.91255=T -0.36657=T 6.039420053=T 0.270582156=T pbc="F F F"
N        1.05351264      -0.22261813      -0.17597934
C        2.51325559      -0.03233507      -0.13136958
C        2.97767424       1.34386746       0.31803768
C        3.63796179       1.30178791       1.49074563
C        3.80451924      -0.11100989       1.93640789
O        4.56438997      -0.92687411       0.98560684
C        3.13098534      -0.95593053       0.92418589
H        0.66186348       0.22916765      -1.00498010
H        0.62535172       0.23570264       0.63355249
H        2.91701933      -0.28733369      -1.12533492
H        2.78711112       2.24296299      -0.27127718
H        4.04048637       2.15762657       2.03245866
H        3.93008235      -0.39406139       2.98366297
H        2.64387681      -1.91056240       1.14444306
