16
Properties=species:S:1:pos:R:3 -1583.8637353402107=T 10.327931=T 11.31009=T -9.225=T -7.1771=T -10.647=T 0.7983=T -0.2031=T 0.674=T 9.56909=T -0.03494=T 4.381541254=T 12.014367386=T 0.193714948=T pbc="F F F"
C        2.59071340      -1.18556307       0.23645726
O        3.81683565      -0.48725634       0.42899253
C        3.73498611       0.86966135      -0.02861821
C        5.07194710       1.56861246       0.18317391
C        6.23425598       1.11944607      -0.71034415
N        6.30640311      -0.22758975      -0.92901949
O        7.04512097       1.92150916      -1.17183153
H        2.72819815      -2.19777544       0.63600214
H        2.32380593      -1.24832056      -0.83444225
H        1.76334543      -0.69254562       0.77845676
H        2.94402915       1.39736949       0.53803500
H        3.45005891       0.88624968      -1.09923373
H        5.37931249       1.44364517       1.23466696
H        4.94976729       2.64524383       0.00814301
H        5.61919540      -0.85259317      -0.51121918
H        7.07246492      -0.58371325      -1.49104902
