15
Properties=species:S:1:pos:R:3 -1558.9291049444396=T 10.120053=T 11.32128=T -10.0655=T -7.9056=T -11.273=T 1.8379=T -0.2129=T -0.147=T 10.78644=T 0.68344=T 4.3810825058=T 11.5645213808=T 0.194114486=T pbc="F F F"
C        0.74243147      -0.06451393      -0.15181660
C        2.20003826      -0.42562332       0.01516480
C        3.05776215      -0.83747369      -1.17248907
C        3.27240781       0.48631245      -0.50943924
O        4.49303078       0.60291939       0.23829895
C        4.63709369       1.75036599       0.94892833
O        3.84978084       2.66940412       1.00354046
H        0.40152079       0.59291739       0.66119918
H        0.11037287      -0.96512073      -0.15268011
H        0.57096143       0.46178011      -1.10226069
H        2.46020769      -0.92862939       0.95014507
H        2.61185565      -0.83668797      -2.16828833
H        3.81545692      -1.60290654      -1.00418325
H        2.98533655       1.41294464      -1.00746120
H        5.61417308       1.71135150       1.46916171
