13
Properties=species:S:1:pos:R:3 -1360.1822604706856=T 11.06935=T 11.08308=T -8.2036=T -6.2655=T -8.662=T 0.9992=T -0.654=T -0.057=T 8.21673=T 0.54035=T 4.6192596118=T 0.317382936=T pbc="F F F"
C        2.14383454      -0.90143382      -0.78537227
O        1.97416078       0.21782674       0.10409740
C        2.81436051       1.29602362      -0.14436330
C        2.29694171       2.55395986      -0.07590714
N        0.96047655       2.81672183       0.09025481
C        4.19661441       1.06259973      -0.36411045
N        5.32745111       0.81790320      -0.56092207
H        1.43416477      -1.66413603      -0.44604192
H        3.16889404      -1.29924089      -0.72971728
H        1.91847925      -0.61350521      -1.82451012
H        2.96144225       3.40988777      -0.18241363
H        0.38574560       2.03747404       0.40136003
H        0.70223449       3.72271915       0.46351594
