17
Properties=species:S:1:pos:R:3 -1733.2564899337133=T 13.694919=T 13.92024=T -7.739=T -5.7779=T -8.033=T 1.2674=T -0.2139=T 0.341=T 7.63282=T 0.24962=T 4.7898147534=T 0.707019071=T pbc="F F F"
C        3.58973466      -1.22885147       0.11455045
O        2.68091146      -0.18858605       0.48488824
C        3.12281411       1.08826184       0.31721650
C        4.31971846       1.50530451      -0.15760580
C        4.65059867       2.90973555      -0.27983419
C        5.82237096       3.39530057      -0.74215774
C        6.15658655       4.84880262      -0.86422409
H        3.06909561      -2.17149459       0.31599141
H        4.51294726      -1.17720851       0.71465293
H        3.84540714      -1.16553236      -0.95584737
H        2.35028946       1.79495374       0.63037725
H        5.07795516       0.78129964      -0.46512953
H        3.87758210       3.62364807       0.03261539
H        6.59716910       2.68492307      -1.05521906
H        5.32367901       5.48256736      -0.52770444
H        6.39265366       5.12286265      -1.90601417
H        7.04563665       5.11035335      -0.26644578
