13
Properties=species:S:1:pos:R:3 -1438.7427265065521=T 9.073297=T 10.03007=T -10.1364=T -8.0451=T -11.319=T 1.3226=T -0.1956=T 0.215=T 10.27981=T 0.43345=T 4.3673944514=T 12.0676565688=T 0.128690471=T pbc="F F F"
O        1.61011638       0.31219439       1.19020692
C        2.38959856       0.09439029       0.29633558
C        3.00194265      -1.24540971      -0.12620910
C        3.98849743      -0.90133195      -1.21682770
C        5.10941477       0.06260024      -0.86232886
C        3.82745472       0.58285773      -1.44245843
O        2.87755476       1.10636212      -0.51394667
H        2.18933657      -1.89402255      -0.48567661
H        3.43850138      -1.72931960       0.75885589
H        4.12258306      -1.57957950      -2.05860468
H        5.30508208       0.27416910       0.19088302
H        5.98867646       0.06377772      -1.50661236
H        3.76486117       1.06373170      -2.41725698
