19
Properties=species:S:1:pos:R:3 -1801.5965060729752=T 12.197975=T 13.52725=T -8.5159=T -6.3835=T -9.798=T 0.9614=T 0.0633=T 3.574=T 9.19696=T -3.28811=T 7.9922367488=T 11.4278640116=T 0.271549067=T pbc="F F F"
C        2.33500488      -0.97560858      -0.82755501
N        2.17793909       0.18739620       0.04731358
C        3.33987435       1.03914547       0.06874148
C        3.43738917       2.11586166      -0.99166408
C        3.15372386       2.49250520       0.44200279
N        4.20474813       3.13200923       1.19270762
C        4.00778851       3.04771862       2.64029464
H        1.44115546      -1.61101943      -0.75639572
H        3.22486973      -1.59888532      -0.60202355
H        2.42359307      -0.63463256      -1.86961896
H        1.96519244      -0.12380499       0.99835101
H        4.30395842       0.60543279       0.37675429
H        2.61079778       2.18948519      -1.69859115
H        4.42912201       2.34982400      -1.37900276
H        2.11206104       2.77256204       0.66415669
H        4.27631505       4.11177952       0.90882119
H        4.08235011       1.99575836       2.95522244
H        3.02789385       3.43501853       2.98962933
H        4.80340305       3.60633407       3.15274616
