17
Properties=species:S:1:pos:R:3 -1756.1239859855718=T 11.471874=T 12.32414=T -9.0775=T -6.8995=T -8.872=T 0.9527=T -0.053=T 1.317=T 8.31966=T -0.64165=T 5.9410123648=T 0.322543561=T pbc="F F F"
C        0.98202364       0.01793987       0.04911701
C        2.47370819      -0.02251395      -0.03921633
C        3.27160133      -1.10181451      -0.10964587
C        4.73771575      -0.75240909      -0.09003762
C        4.73868067       0.77924237      -0.30171113
C        3.29902328       1.25391906       0.01412321
O        2.82459292       2.30113979      -0.85027148
H        0.54133646      -0.98180553      -0.05896120
H        0.55618333       0.67832037      -0.72132238
H        0.66222013       0.43338401       1.01950289
H        2.91366428      -2.13422299      -0.12459952
H        5.18492086      -1.02370553       0.88280209
H        5.31926519      -1.29230447      -0.85452995
H        4.94529971       1.01053934      -1.35927172
H        5.49682595       1.30402963       0.29454145
H        3.23014468       1.70595556       1.02026445
H        2.86729361       1.95488606      -1.76131391
