20
Properties=species:S:1:pos:R:3 -1944.5390513964362=T 12.429819=T 13.6335=T -8.8699=T -6.7382=T -10.284=T 0.8759=T -0.0502=T 2.858=T 9.67564=T -2.54753=T 8.366389301=T 10.6391394712=T 0.092119335=T pbc="F F F"
C        1.08980928      -0.03682484       0.48438463
C        2.43581181      -0.00911395      -0.24644385
C        2.22835195       0.04891041      -1.75678101
C        3.40967645       1.05433584       0.35839369
C        4.04976188      -0.04949659       1.23403801
N        5.48438263       0.05205230       1.46107881
C        3.41179599      -1.11103931       0.28006873
H        1.21551667      -0.07770971       1.57657146
H        0.49897038      -0.91618801       0.18284103
H        0.49915907       0.86276786       0.24955140
H        3.19014283       0.06174900      -2.29115124
H        1.67052804       0.95446022      -2.04561217
H        1.65562454      -0.82233308      -2.11299523
H        2.97354884       1.92741753       0.86519673
H        4.12872568       1.40824109      -0.39789414
H        3.56346214      -0.08632365       2.22144213
H        5.98436242      -0.01356536       0.56942754
H        5.81385923      -0.72609722       2.03814741
H        4.13015859      -1.41179658      -0.49990326
H        2.96933159      -2.01559598       0.72474933
