14
Properties=species:S:1:pos:R:3 -1475.76805301311=T 10.912951=T 12.14406=T -9.2071=T -7.0621=T -9.472=T 1.1406=T -0.2835=T 0.883=T 11.81419=T -0.9382=T 5.418746137=T 6.1452916984=T 0.346955823=T pbc="F F F"
C       -0.12622574      -0.20629640       0.68947287
C        0.87172453       0.26271133      -0.32876247
C        1.91081496       1.04861926      -0.00830480
O        2.89265984       1.54725226      -0.83232170
C        2.77765002       1.17214416      -2.20263631
C        3.88093050       1.77115881      -2.95200687
N        4.74142026       2.22627851      -3.59189731
H       -0.15199995      -1.30580322       0.74858164
H       -1.14540421       0.12318586       0.43329658
H        0.10935392       0.17845526       1.69144393
H        0.71578042      -0.06796124      -1.35825130
H        2.09155438       1.39388022       1.01184316
H        1.82001268       1.52434828      -2.62837270
H        2.82060837       0.07314691      -2.31531472
