13
Properties=species:S:1:pos:R:3 -1381.7919965105948=T 9.948171=T 10.28877=T -7.9631=T -5.9775=T -8.172=T 0.4978=T -0.5726=T 0.693=T 7.75345=T -0.00995999999998=T 4.5232696506=T 6.5399391364=T 0.322238061=T pbc="F F F"
C        0.96675863      -0.00806549      -0.00882209
N        2.41667581      -0.02492969      -0.00114158
C        3.27667232       1.06268308       0.00525168
N        4.53901273       0.69047107       0.01106876
C        4.52938601      -0.69233540       0.00818737
C        3.22880218      -1.14668407       0.00060425
O        2.75343414      -2.42677677      -0.00367101
H        0.62924669       1.03440748      -0.00160109
H        0.55496337      -0.50281912       0.88463741
H        0.56409516      -0.48787902      -0.91453107
H        2.89877356       2.08187153       0.00520450
H        5.43910501      -1.28361619       0.01178112
H        1.78054438      -2.42356742      -0.01305826
