13
Properties=species:S:1:pos:R:3 -1397.668125728021=T 10.100002=T 10.55463=T -7.7805=T -5.8106=T -7.944=T 0.7064=T -0.1955=T 0.618=T 7.50275=T 0.06762=T 4.3154071216=T 6.6290106788=T 0.257352289=T pbc="F F F"
C        0.89806918      -0.07229132      -0.00591118
C        2.38199228       0.04011259      -0.00275381
C        3.23609654       1.12792079      -0.00341492
O        2.85937832       2.44013494      -0.00678022
N        4.55292625       0.75852354      -0.00031949
C        4.53578932      -0.56934398       0.00220781
N        3.25665285      -1.04709120       0.00075627
H        0.46410830       0.93515928       0.00235313
H        0.51469284      -0.60505187       0.87944545
H        0.51682887      -0.58951907      -0.90141629
H        3.68970712       2.95240108      -0.00571115
H        5.40628921      -1.21795745       0.00526978
H        2.98099892      -2.02403734       0.00240460
