18
Properties=species:S:1:pos:R:3 -1703.6945560639913=T 10.72439=T 11.88765=T -9.6674=T -7.3418=T -10.939=T 0.667=T -0.3661=T 2.767=T 10.26569=T -2.49334=T 8.6742961334=T 10.3540460628=T 0.122443212=T pbc="F F F"
N        1.23154511      -0.22720541      -0.48631270
C        2.69998707      -0.18355654      -0.36634525
C        3.12554678       1.27798189      -0.17411499
O        2.30783397       1.85941041       0.85261129
C        4.59506950       1.43265794       0.20142196
C        5.01582434       2.89017524       0.41540459
O        4.46851882       3.47053115       1.59677481
H        0.86999819      -1.15430795      -0.26112393
H        0.93770670      -0.01602682      -1.44289086
H        3.24028262      -0.62319085      -1.22505866
H        2.98052271      -0.74853124       0.53622752
H        2.94660636       1.82316346      -1.12774474
H        1.43222759       1.42586226       0.72753378
H        5.20717172       0.99985191      -0.60847398
H        4.80098265       0.86027713       1.12162627
H        4.74384571       3.48304190      -0.48297569
H        6.11008680       2.94813367       0.52299406
H        3.52499335       3.21013186       1.61232653
