20
Properties=species:S:1:pos:R:3 -1936.5696139651359=T 12.558354=T 14.023=T -8.4969=T -6.4499=T -9.963=T 0.966=T 0.0644=T 3.229=T 9.20569=T -3.00508=T 8.0430834074=T 10.292387825=T 0.097056738=T pbc="F F F"
C        1.60123655       2.53382440       1.65367199
C        2.90217620       2.51476606       0.85979495
N        3.78347741       1.43189710       1.30831537
C        5.01164332       1.33917057       0.53234883
C        6.13459947       2.36681218       0.84761753
C        7.16400139       1.21197095       0.70965088
C        5.99707527       0.20683072       0.91201612
H        0.95708358       3.36331284       1.32969481
H        1.80323480       2.64571718       2.72822051
H        1.03562189       1.59937636       1.51051928
H        3.44204094       3.46510237       1.00950011
H        2.67832276       2.45275811      -0.22938495
H        3.27900152       0.54208712       1.23261787
H        4.82232892       1.32669372      -0.56484414
H        6.04419678       2.70407778       1.89085041
H        6.24299549       3.23810198       0.18726692
H        7.58032243       1.15462014      -0.30630987
H        7.99252312       1.17991821       1.42953933
H        5.98751358      -0.71084618       0.30731155
H        5.87405458      -0.05313161       1.97406250
