17
Properties=species:S:1:pos:R:3 -1753.1972877047965=T 11.757888=T 12.83012=T -9.2128=T -7.3032=T -10.046=T 0.0046=T -1.6578=T -0.644=T 9.42307=T 1.23805=T 3.4412438286=T 5.3659404996=T 0.384047657=T pbc="F F F"
C        1.34469231      -0.01171984      -0.12600925
C        2.83502952      -0.27029518       0.06883752
C        3.68856942       0.98506880      -0.09362457
O        3.17386049       2.06890829      -0.35953797
C        5.18102126       0.89806696       0.07397293
C        5.93062434       2.18854325      -0.10364277
C        5.79361699      -0.26577006       0.36322468
H        0.77398943      -0.94166867       0.00036061
H        1.14072877       0.38837925      -1.12790719
H        0.97356819       0.72547409       0.59809306
H        3.19687899      -1.02799674      -0.64658526
H        3.03067468      -0.69374903       1.06840847
H        5.75362506       2.60482199      -1.10582148
H        7.00810329       2.04228707       0.04044102
H        5.57054847       2.94692514       0.60625266
H        5.24502482      -1.19891227       0.49034648
H        6.87790397      -0.31642306       0.48200107
