10
Properties=species:S:1:pos:R:3 -969.8473525640021=T 7.065553=T 7.13995=T -8.8279=T -6.5784=T -9.42=T 0.9931=T 0.0821=T 1.254=T 9.00595=T -0.79841=T 6.413423822=T 0.392772724=T pbc="F F F"
C        0.98091743      -0.12928350       0.05179981
O        2.37716341      -0.00405597      -0.23369199
C        2.85142516       1.27814988      -0.20326882
C        4.09661897       1.59414683      -0.57873543
H        0.76351946      -1.20322737       0.07757865
H        0.36993785       0.34655137      -0.73289005
H        0.73251713       0.31419256       1.03042452
H        2.14501275       2.03156371       0.16515847
H        4.79170001       0.84030491      -0.94702388
H        4.42796783       2.62734758      -0.50989128
