16
Properties=species:S:1:pos:R:3 -1564.7123468288644=T 10.687759=T 11.58113=T -9.6446=T -7.3482=T -9.455=T 1.1977=T -0.0186=T 1.443=T 8.92096=T -0.89437=T 6.6869245394=T 0.45900711=T pbc="F F F"
C        3.54059120      -0.77714310       1.18471814
O        4.50658511       0.23173253       0.93255251
C        4.01675804       1.21888299       0.02808503
C        5.11628227       2.24840660      -0.22940283
C        6.31146437       1.68100977      -0.93999021
C        6.79503928       2.13475546      -2.10194759
H        3.98795497      -1.48532618       1.89366101
H        3.26534592      -1.31720662       0.25861887
H        2.61888543      -0.35474345       1.62952320
H        3.12519321       1.71712119       0.46098339
H        3.70686416       0.74139893      -0.92383462
H        5.42339779       2.65926358       0.74831838
H        4.68767133       3.07889386      -0.81271009
H        6.79640059       0.83151699      -0.44839150
H        6.33534161       2.98059934      -2.62108037
H        7.66793473       1.68019810      -2.57307332
