17
Properties=species:S:1:pos:R:3 -1782.0715268215058=T 13.143963=T 13.55576=T -8.6468=T -6.648=T -8.548=T 0.5894=T -0.9314=T 0.304=T 7.95374=T 0.22713=T 5.2379993462=T 0.714666608=T pbc="F F F"
C        2.64631813      -1.32682776       0.27215564
C        2.15696671      -0.13486353      -0.11490088
C        2.90735837       1.12475765      -0.17663277
C        2.30044656       2.24202146      -0.63320618
C        4.32900947       1.11515321       0.28873486
C        5.44456668       0.71315130      -0.66145041
C        5.34138078       2.13556544      -0.16672243
H        2.01284597      -2.21380491       0.29232526
H        3.68858278      -1.45278764       0.56979162
H        1.10553249      -0.06785916      -0.41453754
H        1.26499556       2.21646177      -0.97785517
H        2.81562985       3.20180862      -0.67167926
H        4.45292186       0.75457223       1.31427310
H        5.16213171       0.52172250      -1.69736813
H        6.24605331       0.07986924      -0.27917182
H        6.07205792       2.48304532       0.56407270
H        5.02618186       2.89282426      -0.88457860
