14
Properties=species:S:1:pos:R:3 -1345.4734231272191=T 9.581434=T 10.11936=T -9.2246=T -6.9197=T -9.102=T 1.0794=T -0.0349=T 1.438=T 8.61292=T -0.83439=T 6.354096521=T 0.395424766=T pbc="F F F"
C        0.86768834      -0.00134671       0.03478052
C        2.36334597      -0.07171788      -0.01220040
C        3.19227036       0.98101865       0.00646768
C        4.68915603       0.88356382      -0.03714150
N        5.22060992       1.65888994      -1.17322854
H        0.47131228      -0.53721601       0.91238333
H        0.41968145      -0.48050538      -0.85075751
H        0.51277953       1.03761951       0.07928200
H        2.80153681      -1.07711798      -0.06026840
H        2.78377072       1.99825056       0.03761584
H        4.98208178      -0.18632409      -0.03091783
H        5.10775142       1.33285946       0.88087253
H        4.93122661       1.21659668      -2.04963371
H        6.24288879       1.64219944      -1.16007400
