12
Properties=species:S:1:pos:R:3 -1273.4060326442993=T 9.669016=T 10.50222=T -9.2653=T -7.0219=T -9.521=T 0.946=T -0.0491=T 2.069=T 9.17888=T -1.67969=T 4.3003800184=T 9.300995769=T 0.433445825=T pbc="F F F"
O        1.05089228      -0.10198008      -0.05571796
C        2.45063741      -0.02530626       0.02982012
C        3.21263021      -0.73658335      -1.03160092
C        3.21488385       0.79698284      -1.01398906
C        4.38939002       1.52396525      -0.64018283
C        5.38564716       2.13395709      -0.30149040
H        0.68024096       0.68659512       0.37983968
H        2.86880414      -0.02073654       1.04175641
H        2.62685291      -1.20064558      -1.82497263
H        4.13553948      -1.24527747      -0.75669274
H        2.57780831       1.26069759      -1.77106360
H        6.26536326       2.66884140      -0.00827608
