16
Properties=species:S:1:pos:R:3 -1531.4849423477133=T 10.759712=T 11.59484=T -8.4473=T -6.4881=T -10.124=T 0.9816=T 0.1037=T 0.634=T 9.54758=T -0.00361000000004=T 5.5820480976=T 9.6526324636=T 0.242180236=T pbc="F F F"
C        4.03915663      -1.80240811      -0.51478378
O        5.11089466      -1.01993781       0.01157082
N        5.25335470       0.13104231      -0.81788796
C        6.17139747       0.90735103      -0.34778774
C        6.99262563       0.69487201       0.88219586
O        6.46782571       2.05796094      -1.01054651
C        5.71710185       2.30567804      -2.21428635
H        3.97415429      -2.68235498       0.13777793
H        4.24854982      -2.11843073      -1.54917868
H        3.08846241      -1.24606918      -0.48791644
H        6.34239753       0.43405187       1.72741703
H        7.56742438       1.59825936       1.11219615
H        7.68310504      -0.14828876       0.73665122
H        6.09093063       3.26168515      -2.59606186
H        4.64170857       2.36675269      -1.99466202
H        5.88207067       1.50138617      -2.94555765
