16
Properties=species:S:1:pos:R:3 -1636.5493102563896=T 12.16491=T 12.5502=T -8.4849=T -6.5732=T -9.193=T 0.6461=T -0.9555=T -0.499=T 8.91365=T 1.15206=T 3.5284803782=T 4.6880594432=T 0.420414472=T pbc="F F F"
C        0.88707521       0.22558133       0.10632979
C        2.28518994      -0.22166497      -0.31088341
C        3.36540297       0.83081971      -0.02117973
O        3.06036993       1.91713049       0.48367608
C        4.75906815       0.53458069      -0.34841831
C        5.20601244      -0.63552818      -0.87745084
N        6.49998580      -0.90895828      -1.23658091
H        0.14827919      -0.55686496      -0.11663135
H        0.59460311       1.14321539      -0.42063439
H        0.84919426       0.44627265       1.18121575
H        2.30933009      -0.45458365      -1.38938559
H        2.55919237      -1.15737586       0.20614164
H        5.46283848       1.34297413      -0.12877240
H        4.50927339      -1.44900722      -1.09472433
H        7.23411835      -0.28138781      -0.92148234
H        6.77925631      -1.87360347      -1.36895967
