19
Properties=species:S:1:pos:R:3 -1802.6787468437797=T 12.914257=T 13.53899=T -8.2822=T -6.3315=T -9.09=T 1.4212=T -0.21=T 0.692=T 8.49858=T -0.1652=T 4.7622774628=T 5.364440269=T 0.348094272=T pbc="F F F"
C        3.13376014      -1.07995295       0.32659685
C        2.16319851       0.02207456       0.76287609
C        2.59016736       1.44866610       0.39242094
C        1.47321113       2.45968201       0.64492973
N        3.77936846       1.81235088       1.18298483
N        4.37665734       2.98428001       0.84286325
C        5.61429223       3.16242828       1.14908521
H        2.73039252      -2.07369489       0.56671769
H        4.11313686      -1.00863386       0.82417418
H        3.31119092      -1.04401950      -0.75900600
H        1.99697579      -0.02190775       1.85308212
H        1.18364276      -0.15838537       0.29308171
H        2.84442352       1.46467599      -0.68775335
H        1.13899574       2.41061548       1.69206727
H        0.61592575       2.25145003      -0.01082305
H        1.82907421       3.47774467       0.44368733
H        4.42819124       1.03146802       1.34222403
H        6.05932146       4.12924143       0.91373977
H        6.23280407       2.39425687       1.64372142
