17
Properties=species:S:1:pos:R:3 -1740.8104901952104=T 10.796626=T 12.10074=T -9.1443=T -7.1794=T -11.127=T 0.933=T 0.0493=T 2.8=T 10.31249=T -2.47448=T 8.8064900066=T 10.7605341638=T 0.090863285=T pbc="F F F"
C        1.04890336      -0.10659551       0.00115308
C        2.52906439       0.13048696      -0.08598484
C        3.45889472      -0.52468956      -1.13905767
C        4.44694455      -0.30698551       0.02167821
C        4.59702000       1.22618378       0.09965802
C        3.08049152       1.57543368       0.01543211
O        3.33633478      -0.55684795       0.96195279
H        0.64760344       0.31044504       0.93650715
H        0.82105056      -1.18051973      -0.02888526
H        0.53647297       0.38462866      -0.83897185
H        3.63036497      -0.00932066      -2.09631712
H        3.22028851      -1.58566450      -1.28138341
H        5.32483309      -0.94096113       0.19506817
H        5.05224568       1.53321949       1.05002263
H        5.19163102       1.63841161      -0.72842823
H        2.81740745       2.18920148      -0.85831854
H        2.70659899       2.07080382       0.92166474
