19
Properties=species:S:1:pos:R:3 -1872.7492148267095=T 12.511184=T 14.05488=T -8.4038=T -6.2925=T -8.987=T 0.914=T 0.0212=T 1.311=T 8.53253=T -0.75316=T 6.0860883834=T 0.331959255=T pbc="F F F"
C        1.66758292      -0.23253743       2.64531859
C        0.88116720      -0.01721403       1.35120359
C        1.80273940       0.18602997       0.15943318
O        0.99896639       0.40263974      -1.00878686
C        1.67176674       0.60698334      -2.18068675
C        2.99851973       0.63199138      -2.39481914
C        3.58952057       0.87025064      -3.75433982
H        0.99063758      -0.38114888       3.49748465
H        2.30670406       0.63340677       2.87599004
H        2.31755151      -1.11838115       2.57927967
H        0.22460224       0.86209273       1.44496165
H        0.22791599      -0.88137203       1.15220181
H        2.44633706      -0.70032241       0.00269468
H        2.46342503       1.05959418       0.31681429
H        0.95764022       0.76127504      -2.99456822
H        3.69677227       0.47570864      -1.56965594
H        2.80676248       1.01485337      -4.51308474
H        4.21616429       0.02328496      -4.07840035
H        4.23470434       1.76382518      -3.76570034
