16
Properties=species:S:1:pos:R:3 -1638.2419656039017=T 12.544752=T 13.46446=T -9.4261=T -7.233=T -9.578=T 0.9235=T -0.1738=T 1.264=T 9.07206=T -0.6961=T 4.3742384786=T 6.6660576956=T 0.382420993=T pbc="F F F"
N        0.99276687      -0.00599123       0.22382344
C        2.45616153      -0.02377925       0.00689709
C        2.75074989      -0.74731857      -1.33383513
C        4.21217641      -0.87960493      -1.63997926
C        4.85352847      -2.04056607      -1.81522341
C        2.96786885       1.34809482       0.00410802
C        3.39796841       2.48306262       0.00737297
H        0.78030436       0.55613834       1.05163045
H        0.67951359      -0.95869191       0.42940953
H        3.00666495      -0.56958436       0.80202334
H        2.23503526      -0.17851711      -2.12493853
H        2.28490589      -1.74526579      -1.28799074
H        4.77098393       0.05936332      -1.71817775
H        4.33095115      -2.99855449      -1.74546458
H        5.92014044      -2.07437155      -2.04199256
H        3.77329000       3.48609616       0.00766712
