14
Properties=species:S:1:pos:R:3 -1476.4846354621102=T 12.697576=T 13.23445=T -8.893=T -7.0002=T -8.467=T 0.6878=T -0.8673=T -0.045=T 7.99044=T 0.74776=T 4.1778198574=T 10.3037201454=T 0.214013783=T pbc="F F F"
C        0.81635490      -0.18322735      -0.10957622
C        2.32797480      -0.02640707       0.11654232
C        2.81136338       1.39176753       0.04441464
C        3.32266433       2.18211968       1.04824235
N        3.67777350       3.46874739       0.71627904
C        3.44507104       3.69034998      -0.55061321
S        2.77263812       2.33352438      -1.42739144
H        0.51839778      -1.23742746      -0.02104859
H        0.52596359       0.16808724      -1.11009254
H        0.24763988       0.40004814       0.62809591
H        2.87593737      -0.64557207      -0.61262584
H        2.59773265      -0.41452045       1.11145947
H        3.46036758       1.84089200       2.07489194
H        3.63972108       4.63232804      -1.06083786
