17
Properties=species:S:1:pos:R:3 -1598.7087792798577=T 11.959806=T 12.75463=T -9.0913=T -7.0493=T -10.374=T 1.1583=T -0.3745=T 0.565=T 9.89542=T 0.05753=T 5.4428242182=T 6.4393244974=T 0.272951847=T pbc="F F F"
C        0.88180798       1.56998620       0.59504691
C        2.26722434       1.28855003       0.04874634
O        3.13329886       2.34628667       0.51247260
N        4.43483666       2.11452809       0.02885740
C        5.24098374       3.04705938       0.38768902
C        6.67894144       2.96769277      -0.02502170
N        7.05076761       4.18419976      -0.76722374
H        0.18735348       0.78600191       0.26317497
H        0.50569941       2.53811659       0.23666687
H        0.88641658       1.58417027       1.69364306
H        2.27240009       1.27574577      -1.05384040
H        2.65663633       0.32148230       0.40752872
H        4.90246836       3.91407112       0.97143622
H        6.83572557       2.01478683      -0.56330879
H        7.30085217       2.93759376       0.88636998
H        6.60423400       4.17326241      -1.68764074
H        8.05960338       4.19788613      -0.93030672
