16
Properties=species:S:1:pos:R:3 -1587.417779497751=T 11.218648=T 12.05536=T -9.3775=T -7.2957=T -10.49=T 1.4591=T -0.1786=T 0.526=T 9.97773=T 0.11418=T 5.483652808=T 6.5507507156=T 0.212938857=T pbc="F F F"
O        0.77719898       1.66700915      -0.41902171
N        2.15928223       1.86015007      -0.68620860
C        2.88059733       1.11007363       0.06263558
C        4.36665195       1.15719030      -0.01796378
C        5.07874998       2.17680617      -0.94472817
C        6.14967020       2.37423602       0.16142257
C        5.15281953       1.77493675       1.18856882
H        0.36574997       2.28115816      -1.05302903
H        2.41142220       0.43252561       0.79221548
H        4.74608890       0.13691438      -0.20255774
H        4.45713797       3.07160294      -1.08279034
H        5.40836836       1.81820623      -1.92860391
H        7.01728323       1.71554004       0.01001527
H        6.51067184       3.39477553       0.34564658
H        5.53940329       1.08621206       1.95213149
H        4.55695405       2.55868296       1.67832749
