14
Properties=species:S:1:pos:R:3 -1459.536609262597=T 10.649776=T 10.95693=T -8.9042=T -6.9055=T -9.292=T 0.0283=T -1.6525=T -0.383=T 8.78319=T 0.90299=T 4.4851191584=T 6.8232967408=T 0.338536984=T pbc="F F F"
C        0.93165769       0.05516026       0.28286326
C        2.37864386      -0.00532605      -0.16862585
O        2.54363287       1.05968082      -1.16459352
N        3.81371661       1.15807983      -1.73794348
C        4.48186093       0.04404533      -1.82828146
C        3.91095577      -1.26144980      -1.54969267
C        2.80209699      -1.30680231      -0.78833663
H        0.69163601       1.05062906       0.67689807
H        0.76333451      -0.68345694       1.07929965
H        0.25313237      -0.16686878      -0.55222526
H        3.05318269       0.24959333       0.67650577
H        5.46460386       0.15672220      -2.29098823
H        4.33148442      -2.13890148      -2.04277033
H        2.22850143      -2.21918546      -0.61614930
