13
Properties=species:S:1:pos:R:3 -1468.8556415441658=T 10.635184=T 10.65273=T -8.7846=T -6.7976=T -8.547=T 0.0868=T -1.4612=T 0.105=T 8.08695=T 0.42237=T 4.6367168406=T 11.2002009184=T 0.416526181=T pbc="F F F"
O       -1.18133740       0.77725350       0.66984281
C       -1.09418166      -0.40385544      -0.15251108
C       -0.18113430      -1.46069361       0.28532672
C        1.13425348      -1.19223688       0.50700703
C        1.72458469       0.06464795       0.10881004
C        0.98957167       1.03181634      -0.50427494
C       -0.46866235       0.92793106      -0.57445627
H       -2.05237394      -0.69231444      -0.59793922
H       -0.57304300      -2.47350285       0.39599133
H        1.79390538      -1.97899899       0.87820366
H        2.80704025       0.17796301       0.19469375
H        1.47384344       1.88401290      -0.98476007
H       -1.00203625       1.54382746      -1.30653378
