18
Properties=species:S:1:pos:R:3 -1749.736796795269=T 11.177959=T 12.3686=T -8.7966=T -6.6643=T -10.225=T 0.7397=T -0.2463=T 2.826=T 9.81097=T -2.46926=T 7.9914680356=T 10.7058563378=T 0.142609776=T pbc="F F F"
C        2.74165612      -1.34171460      -0.31419823
C        2.22131260      -0.01270886       0.24294844
C        3.25003712       1.10553312       0.22879844
N        4.40343053       0.99742172       1.11123708
C        3.51974462       1.84266812      -1.07510874
C        2.80703708       2.54998406       0.06071985
O        3.47839945       3.53227342       0.79847103
H        1.95939869      -2.11362690      -0.29650133
H        3.59111906      -1.72126005       0.27362395
H        3.07940319      -1.22737176      -1.35531310
H        1.86443741      -0.15320263       1.27960838
H        1.34098288       0.31111844      -0.33671075
H        4.12155391       0.61958782       2.01996062
H        5.11497344       0.37273004       0.72621083
H        2.94930056       1.54046625      -1.95532290
H        4.54417835       2.16444262      -1.27024956
H        1.74057582       2.76431651      -0.04159011
H        4.22784918       3.03665266       1.20806611
