18
Properties=species:S:1:pos:R:3 -1742.801830409727=T 11.117956=T 12.30192=T -8.8115=T -6.6691=T -10.255=T 0.8728=T -0.0896=T 2.869=T 9.55523=T -2.59484=T 8.1799019584=T 10.4344385852=T 0.089995646=T pbc="F F F"
C        0.98785711       0.18140467       0.33656102
C        2.41361068      -0.17431239      -0.06505117
N        3.47407345       0.78534993       0.37189300
C        3.87109492      -0.11807242       1.48480784
C        3.09189373      -1.27583052       0.80517468
C        3.95180752      -2.25078812       0.01296480
O        4.68355786      -3.16076038       0.84518884
H        0.29023203      -0.62320879       0.05686562
H        0.65604088       1.09957238      -0.17258967
H        0.90454268       0.34087459       1.42281569
H        2.45269722      -0.36485940      -1.15357545
H        3.11748716       1.69755013       0.66749717
H        4.96471848      -0.24309481       1.58555047
H        3.46404580       0.14935114       2.47533599
H        2.41199032      -1.83504005       1.46402152
H        4.63087738      -1.69036298      -0.65686211
H        3.31021989      -2.88581893      -0.61797367
H        5.34068291      -2.64063404       1.34049542
