20
Properties=species:S:1:pos:R:3 -1934.2660367107153=T 13.16102=T 14.14154=T -8.3602=T -6.3261=T -9.348=T 1.1063=T 0.0439=T 1.324=T 8.93342=T -0.75381=T 6.5924348088=T 0.460521081=T pbc="F F F"
C        2.48472595      -1.13363719       0.40275793
N        2.28145731       0.09411926       1.16437980
C        2.91422370       1.29859290       0.61349538
C        2.41267944       2.51860271       1.38581129
C        4.46879198       1.24973132       0.58131418
C        5.09522663       2.36182783      -0.20422020
C        5.97126524       3.25716982       0.26882080
H        1.94291230      -1.95512112       0.89249804
H        3.53967453      -1.45401859       0.27677203
H        2.05345736      -1.00904756      -0.60303260
H        2.58491288      -0.03711175       2.13339075
H        2.56091120       1.37626363      -0.43243430
H        2.70675847       2.45035179       2.44618960
H        1.31746740       2.57548815       1.33968108
H        2.84113258       3.44616701       0.98339213
H        4.77271610       0.28907699       0.12993809
H        4.85174847       1.25664658       1.61706014
H        4.79063320       2.42968995      -1.25655396
H        6.30623068       3.23130968       1.30924981
H        6.38579457       4.04108860      -0.36677000
