18
Properties=species:S:1:pos:R:3 -1724.2131565068114=T 12.003988=T 12.8335=T -9.2852=T -7.2762=T -10.721=T 1.4235=T -0.4342=T 0.367=T 10.26606=T 0.15276=T 5.2929251442=T 6.54336115=T 0.419892681=T pbc="F F F"
C        2.39610346      -1.05334266      -0.37173000
C        1.99165169       0.04909385       0.60822113
C        2.67254169       1.39118884       0.35067234
C        2.16181129       2.51145253       1.24679947
O        4.09568959       1.16850701       0.58230076
N        4.83734487       2.18724505      -0.02657287
C        6.09178749       2.06176607       0.20626170
H        1.87275144      -1.99305863      -0.14598746
H        3.47646212      -1.24597982      -0.32464484
H        2.14969862      -0.77312324      -1.40728063
H        2.21213937      -0.25904771       1.64434359
H        0.90380233       0.21808558       0.56064952
H        2.56001151       1.67417933      -0.71058858
H        2.27190639       2.24005815       2.30725582
H        1.09911809       2.70996230       1.04579814
H        2.72662215       3.43412910       1.05939398
H        6.74051214       2.81018629      -0.24897526
H        6.51239575       1.25674798       0.82029318
