17
Properties=species:S:1:pos:R:3 -1588.8606971539334=T 10.082289=T 10.96701=T -9.1064=T -6.9823=T -10.217=T 0.8879=T -0.0894=T 3.242=T 9.4711=T -3.12936=T 8.124306636=T 12.4554103852=T 0.106999904=T pbc="F F F"
C        1.00912958      -0.14325994       0.04669933
C        2.53016760      -0.17306461       0.13146441
N        3.10207153       1.14662659      -0.16586479
C        4.56243718       1.22357287      -0.01784275
C        5.23283239       0.73755644      -1.30657401
O        4.68468992       1.41301347      -2.43345240
H        0.58911516      -1.13573439       0.25970976
H        0.67770041       0.16724516      -0.95411262
H        0.58451826       0.56063462       0.77965384
H        2.92604514      -0.89245014      -0.60342604
H        2.84644228      -0.53917636       1.13197259
H        2.65679517       1.84546564       0.43132469
H        4.94046248       0.64509332       0.85113952
H        4.82795752       2.28067571       0.13511420
H        5.11429499      -0.36021564      -1.40876188
H        6.31240994       0.94958125      -1.27293726
H        3.73776045       1.52407602      -2.19162660
