10
Properties=species:S:1:pos:R:3 -971.4451012466668=T 6.163483=T 6.69993=T -10.0971=T -7.8293=T -12.022=T 1.0473=T 0.1328=T 2.969=T 11.13785=T -2.73724=T 9.2523684598=T 11.3878537294=T 0.349770132=T pbc="F F F"
C        0.97947744      -0.02058782      -0.05518206
C        2.47171859      -0.18705497       0.04469402
C        3.27663397      -0.75202405      -1.05142809
O        3.28115927       0.66686208      -0.79528801
H        0.65284354       0.88134021       0.48240013
H        0.46607658      -0.88505763       0.39211474
H        0.66732029       0.07012318      -1.10434352
H        2.87156500      -0.29550673       1.06166922
H        2.77466900      -1.05559744      -1.97723272
H        4.21615633      -1.26980684      -0.82972371
