17
Properties=species:S:1:pos:R:3 -1655.3504152208857=T 12.37252=T 13.12276=T -8.328=T -6.3371=T -9.099=T 1.5096=T -0.1763=T 0.678=T 8.5228=T -0.15704=T 4.8027960876=T 5.3710983172=T 0.38631698=T pbc="F F F"
C        1.06950162       0.65788045      -0.65427076
N        2.34690424       0.49454087      -0.67206373
N        3.14884703       1.57210086      -0.47917262
C        4.48704082       1.27628808       0.03118874
C        5.36562365       2.49992565      -0.04356944
C        5.32707104       3.52452271       1.07255517
C        6.53421047       2.63297475       0.90123431
H        0.44590187      -0.20808501      -0.87674051
H        0.58528169       1.62656896      -0.44433595
H        2.70299789       2.38508999      -0.03192968
H        4.88912396       0.46200180      -0.59000852
H        4.45773377       0.90569882       1.07628556
H        5.50947533       2.89367245      -1.05270673
H        4.67313387       3.32409565       1.92372699
H        5.42124608       4.57864807       0.81111333
H        7.45317643       3.07568200       0.51747460
H        6.68574024       1.83926390       1.63451925
