14
Properties=species:S:1:pos:R:3 -1340.7897469268157=T 8.758884=T 9.62444=T -9.199=T -7.0317=T -10.745=T 0.9718=T 0.0582=T 3.122=T 10.16291=T -2.88808=T 8.6082115954=T 11.7044767776=T 0.247929828=T pbc="F F F"
C        1.01543587      -0.02112994      -0.08054514
C        2.51920222       0.05745305       0.01318527
N        3.37135396      -0.64069440      -0.98054084
C        3.31754008       0.84446488      -0.96601334
C        4.59347028       1.55758990      -0.59445662
H        0.53729831       0.75014122       0.54271969
H        0.64752871      -1.00078595       0.26178773
H        0.67513724       0.12616164      -1.11740151
H        2.92160564      -0.01864382       1.03036561
H        2.77158043      -0.99451749      -1.73488424
H        2.73442591       1.32120762      -1.76371846
H        5.11757609       1.01393456       0.20360391
H        4.38637886       2.58030434      -0.24414616
H        5.27255640       1.62423439      -1.45787590
