13
Properties=species:S:1:pos:R:3 -1389.0432158210338=T 10.279934=T 11.42118=T -9.7149=T -7.4995=T -10.328=T 0.8918=T -1.1179=T -0.067=T 10.05547=T 0.71047=T 3.6498502736=T 10.4738165388=T 0.295293996=T pbc="F F F"
O        1.04481619      -0.05146336       0.44884391
C        2.41891826       0.02130296       0.02504804
C        2.49558216      -0.64295536      -1.36228183
C        2.08363722      -2.10048990      -1.34116809
O        2.70809284      -2.98311971      -1.90125127
C        2.91088817       1.39918101      -0.01153583
C        3.30354194       2.54775213      -0.00993470
H        0.95493586       0.48789799       1.25390506
H        3.05900441      -0.55036840       0.72678286
H        3.50811885      -0.56085890      -1.77755297
H        1.79768887      -0.10282819      -2.02501183
H        1.14476130      -2.32507139      -0.77956813
H        3.64957394       3.56163112      -0.02006521
