17
Properties=species:S:1:pos:R:3 -1664.4778309390247=T 12.93663=T 13.22733=T -8.6227=T -6.6101=T -9.084=T 1.2049=T -0.387=T 0.519=T 8.63625=T -0.01161=T 4.9389451142=T 5.5141657626=T 0.314885652=T pbc="F F F"
C        1.00107166       0.06670154       0.06803104
C        2.49900773       0.15496802      -0.25248297
C        2.90128667      -0.52869096      -1.54249634
C        2.08532043      -1.11315441      -2.42803785
C        2.95940135       1.59300032      -0.29285779
N        3.88217068       2.01608788       0.49374547
N        4.32151841       3.31316706       0.34607998
H        0.79325298       0.53430341       1.03998441
H        0.66815707      -0.98017123       0.11177767
H        0.39616228       0.58375678      -0.69261084
H        3.07211661      -0.31781811       0.56453889
H        3.97772725      -0.51110267      -1.74457306
H        1.00423989      -1.16075092      -2.28388344
H        2.48084503      -1.57535698      -3.33359878
H        2.48045429       2.25519071      -1.04009430
H        4.67943680       3.66042249       1.23362200
H        3.63690087       3.96085707      -0.06503410
