20
Properties=species:S:1:pos:R:3 -1892.485488412248=T 11.862585=T 13.22579=T -9.2163=T -6.908=T -10.616=T 0.9024=T -0.0853=T 3.061=T 9.97409=T -2.78082=T 8.7908801692=T 10.5606687318=T 0.118181258=T pbc="F F F"
C        0.79525460      -0.02048842      -0.18273882
C        2.30887623      -0.20782689      -0.25817413
O        2.70960084      -0.69661553      -1.55739400
C        3.05919159       1.10178013      -0.02129582
C        4.58880074       0.98087290      -0.06524640
C        5.20612149       0.17828867       1.08439225
N        4.89564824       0.78811406       2.39001978
H        0.49591703       0.34247306       0.81164017
H        0.26842743      -0.97106034      -0.36128661
H        0.46091540       0.70599546      -0.93827178
H        2.61231659      -0.94153678       0.51539617
H        2.21519262      -1.51631821      -1.72748535
H        2.75491504       1.49724550       0.95979607
H        2.72950745       1.82241462      -0.78856242
H        5.02304584       1.99654211      -0.05645269
H        4.89206764       0.52212243      -1.01880451
H        6.29220119       0.07078929       0.88961563
H        4.79189330      -0.84311737       1.08947563
H        5.37386988       1.69051069       2.46696597
H        5.26752685       0.20712463       3.14448086
