14
Properties=species:S:1:pos:R:3 -1494.1527183331518=T 10.125348=T 11.27207=T -10.3996=T -8.2404=T -11.348=T 0.3454=T -1.6795=T -0.584=T 10.52629=T 1.21696=T 3.6381955896=T 11.1732339634=T 0.192967428=T pbc="F F F"
C        1.12504776      -0.59271339      -0.18192410
C        2.54469392      -0.04594539      -0.04687821
C        2.59806525       1.49228740       0.02298496
C        3.99374218       2.04517624       0.39048896
O        4.86470895       1.36697679       0.88602732
C        2.12052559       2.14361211      -1.19561413
N        1.77569293       2.66617951      -2.18032598
H        1.13994495      -1.69017863      -0.22168671
H        0.63657945      -0.23114365      -1.09802348
H        0.49886822      -0.29885606       0.67401874
H        3.16903513      -0.37596878      -0.89081347
H        3.02853097      -0.42399200       0.86454571
H        1.94103273       1.84441046       0.84540368
H        4.13131197       3.13517539       0.19058670
