17
Properties=species:S:1:pos:R:3 -1593.4138147401072=T 11.627012=T 12.27804=T -8.5691=T -6.5291=T -10.06=T 1.4803=T -0.3043=T 0.495=T 9.24307=T 0.10943=T 5.5192491886=T 6.6566595568=T 0.173748083=T pbc="F F F"
C        0.91095601      -0.32390639       0.28594699
N        2.22949094      -0.34519843      -0.34440228
C        2.34521637      -1.46713454      -1.27031365
C        2.52497019       0.92402677      -1.01662162
C        2.73744338       2.03412302      -0.03261276
N        2.05254571       3.11236232      -0.13818625
O        2.42259303       4.05083683       0.85802800
H        0.84396024       0.51505569       0.99153029
H        0.75886826      -1.25733594       0.84607665
H        0.08418938      -0.21968517      -0.45187770
H        2.17388357      -2.40821128      -0.72834488
H        3.35870200      -1.49821962      -1.69561145
H        1.61577202      -1.41734246      -2.10986453
H        1.74006289       1.22656455      -1.74405949
H        3.46192950       0.78455948      -1.58366501
H        3.48483747       1.90116657       0.76206511
H        1.82773903       4.79643862       0.65941259
