15
Properties=species:S:1:pos:R:3 -1580.8605059871786=T 11.309877=T 12.07714=T -8.1964=T -6.2907=T -8.086=T 0.7487=T -0.1238=T 0.88=T 7.57694=T -0.18598=T 4.6025215018=T 6.4394732806=T 0.358691104=T pbc="F F F"
C        0.93128992       0.05543849      -0.00819797
N        2.38286916      -0.01830463      -0.00026592
C        3.26302610       1.03252701       0.00334854
N        4.52323659       0.63064919       0.00914359
C        4.47005427      -0.75161927       0.00917457
C        5.71158145      -1.58404538       0.01492411
C        3.15288107      -1.17034890       0.00327455
H        0.63020748       1.10954926       0.00130040
H        0.51104670      -0.43731219       0.87976676
H        0.52090667      -0.41873311      -0.91086303
H        2.92022964       2.06483672       0.00186111
H        5.47179686      -2.65533014       0.02215679
H        6.32764331      -1.36137817       0.89868564
H        6.32819692      -1.37374511      -0.87156767
H        2.70137386      -2.15733375       0.00158852
