16
Properties=species:S:1:pos:R:3 -1698.686710114585=T 12.172104=T 12.84583=T -7.7131=T -5.8862=T -7.854=T 0.865=T 0.0148=T 1.159=T 7.28571=T -0.55415=T 4.7728782658=T 6.0943210538=T 0.450966939=T pbc="F F F"
C        0.94555855       0.03218319      -0.00857741
N        2.39740598       0.01594971       0.00046855
C        3.21626404       1.12423936       0.00418115
C        4.53087137       0.69076778       0.01020346
C        4.51836019      -0.73746428       0.00991017
C        5.70685149      -1.65219258       0.01509169
C        3.18450238      -1.11914677       0.00368114
H        0.60043351       1.07238921       0.00155976
H        0.54136822      -0.47756625       0.87838959
H        0.55164466      -0.45709189      -0.91167678
H        2.79358512       2.12438200       0.00265090
H        5.40883884       1.33141235       0.01494080
H        5.39705674      -2.70638507       0.02193131
H        6.34148621      -1.48684051       0.89962333
H        6.34076545      -1.49818760      -0.87207103
H        2.73434725      -2.10792865       0.00150339
