13
Properties=species:S:1:pos:R:3 -1320.4983717399348=T 11.408888=T 11.45765=T -9.2221=T -7.2568=T -9.84=T 0.1225=T -1.5863=T -0.066=T 9.44009=T 0.69893=T 4.3522309636=T 5.7027608672=T 0.719141342=T pbc="F F F"
C        1.43613519      -0.40110971      -0.26603559
N        2.70578220      -0.28170715      -0.12336124
N        3.16833957       1.01225851      -0.40373383
C        4.22164994       1.31681255       0.27067045
C        4.83602753       2.64239435       0.10100094
C        5.49112899       3.31336505       1.24818751
O        6.28129544       2.68266566       0.23631565
H        1.00100623      -1.38590202      -0.08159515
H        0.78895637       0.43987276      -0.55254321
H        4.68472544       0.61536826       0.98200038
H        4.42274348       3.25949993      -0.70295721
H        5.49889754       2.82084665       2.22683151
H        5.51827206       4.40800515       1.26006978
