13
Properties=species:S:1:pos:R:3 -1399.2095666233843=T 11.007941=T 11.83989=T -9.8765=T -7.8325=T -9.86=T 0.7913=T -0.9575=T 0.686=T 9.39108=T -0.14761=T 5.3265253502=T 6.4835503036=T 0.489332329=T pbc="F F F"
C        1.77028115      -0.26760320      -1.30149074
C        2.22212486       0.16912419      -0.11977968
C        3.32491187       1.14230859       0.07555146
N        3.89590843       1.94023103      -1.01119419
C        3.03436728       2.62434576      -0.01584882
C        3.67266248       3.56423889       0.87207437
N        4.15598829       4.31979576       1.61934073
H        0.94734323      -0.97955910      -1.36098929
H        2.20523371       0.05320844      -2.25113348
H        1.77731725      -0.21282332       0.80478170
H        4.06658401       0.86008704       0.83006949
H        3.34660812       1.81311056      -1.86902784
H        2.01616932       2.89668536      -0.30608371
