18
Properties=species:S:1:pos:R:3 -1791.134522998153=T 12.247513=T 13.37974=T -9.2554=T -7.1863=T -9.235=T 1.0279=T -0.1879=T 1.382=T 8.57877=T -0.70946=T 6.402885012=T 0.403565031=T pbc="F F F"
C        2.77217706      -0.82099819      -1.30827853
C        2.30815326       0.02881247      -0.11441129
C        3.01505439       1.35806538       0.00541918
C        2.37627719       2.53263454      -0.10035068
C        4.49579561       1.30148476       0.23956243
C        5.18526502       2.14470292       1.25137638
N        4.93376437       0.71063719       1.53081197
H        2.21104772      -1.76531712      -1.35171159
H        3.83924192      -1.07719458      -1.23515615
H        2.61604800      -0.28904354      -2.25850179
H        2.48726539      -0.53340037       0.81802005
H        1.22370692       0.20409589      -0.18397728
H        1.30131903       2.57958993      -0.28744544
H        2.90761442       3.48130682      -0.00200582
H        5.09024945       1.03628267      -0.64370301
H        4.59499484       2.82975021       1.86386246
H        6.20735718       2.47046351       1.04151645
H        5.79867823       0.17873751       1.38801268
