17
Properties=species:S:1:pos:R:3 -1736.5212366799817=T 10.720401=T 11.90899=T -9.216=T -7.028=T -11.087=T 0.9714=T 0.0787=T 3.047=T 10.67146=T -2.93862=T 8.925504168=T 10.9131981256=T 0.154830547=T pbc="F F F"
C       -1.74127113       0.85672628       0.56225723
C       -1.19490870      -0.25531709      -0.29618417
C       -0.30595834      -1.33744586       0.29353575
C        1.09778373      -1.25597559      -0.32074288
O        1.68326719       0.06241304      -0.29220296
C        0.85674976       1.08621907       0.28973358
C       -0.53328057       1.11388877      -0.31038214
H       -2.68557448       1.31271634       0.26456668
H       -1.58797909       0.79477960       1.64242631
H       -1.77383814      -0.53316076      -1.17959449
H       -0.24482827      -1.23196427       1.38811154
H       -0.71553786      -2.34074996       0.10277208
H        1.78706259      -1.93984509       0.20483308
H        1.05343887      -1.57085566      -1.37897221
H        0.79946537       0.95974763       1.38816278
H        1.39894815       2.02222828       0.09706408
H       -0.66998908       1.73417528      -1.19799427
