17
Properties=species:S:1:pos:R:3 -1683.3754204269596=T 12.058536=T 13.18291=T -8.5062=T -6.5426=T -9.509=T 0.9167=T 0.0412=T 0.998=T 8.68845=T -0.46364=T 4.9521620218=T 11.9696952302=T 0.274507199=T pbc="F F F"
N        1.02277532       0.36490440       0.54289920
C        2.30999535       0.38960910       0.50229179
N        3.00418655       1.46980904       0.02266431
C        4.40143006       1.41208098      -0.38104671
C        5.10956463       2.72658938      -0.14740462
C        6.32055847       3.07798608      -0.97639141
C        5.02138959       3.81865970      -1.19171787
H        0.70491795      -0.49860253       0.99311796
H        2.98001529      -0.41130532       0.86511142
H        2.42500903       2.19608279      -0.39829703
H        4.50731033       1.13041604      -1.44815974
H        4.88165680       0.61216243       0.20576596
H        5.11665876       3.05545789       0.89469234
H        6.63265051       2.36957291      -1.74564085
H        7.14064355       3.60328437      -0.48720482
H        4.95278996       4.85218186      -0.85253259
H        4.46621785       3.60333088      -2.10684734
