18
Properties=species:S:1:pos:R:3 -1761.2216054089965=T 10.982295=T 11.93985=T -9.1654=T -6.9287=T -10.572=T 0.8399=T -0.1385=T 2.979=T 9.90421=T -2.73716=T 8.4414876212=T 11.417312803=T 0.074749462=T pbc="F F F"
N        0.98899652      -0.00080634       0.09607155
C        2.45760235      -0.00805223       0.01985470
C        2.93976597      -1.36908270      -0.51495467
C        2.60155343      -1.52228392      -2.00303739
C        3.12866056      -0.32168803      -2.78532404
O        2.60299161       0.91256649      -2.28400650
C        2.95391328       1.10377045      -0.91711613
H        0.65035555       0.92990395       0.35118013
H        0.67676003      -0.63813795       0.83221794
H        2.94689742       0.17788943       1.00076719
H        2.49374688      -2.18506858       0.07684846
H        4.03236779      -1.43474086      -0.37115915
H        3.04013852      -2.44796275      -2.40864406
H        1.51035585      -1.57767378      -2.13085553
H        4.23927924      -0.29489001      -2.74113692
H        2.83017735      -0.36453195      -3.84245610
H        4.05776321       1.17480418      -0.81430653
H        2.52521444       2.07684461      -0.62922297
