13
Properties=species:S:1:pos:R:3 -1408.4807087401298=T 12.392966=T 11.96833=T -9.109=T -7.1969=T -9.707=T 0.0548=T -1.6493=T -0.955=T 9.53883=T 1.53468=T 3.4371026962=T 4.9473265678=T 0.625868598=T pbc="F F F"
C        2.18303168       3.12720508      -0.85087750
C        3.23045372       2.31588310      -0.71091954
O        4.47295160       2.81809903      -0.35998318
C        5.49883009       1.94558923      -0.23404301
C        6.74419350       2.34385772       0.10178078
C        7.80128991       1.34937188       0.21922373
O        8.96531857       1.59551390       0.51685103
H        1.21811134       2.70955173      -1.12704516
H        2.27006589       4.20157937      -0.69514163
H        3.19474774       1.23251644      -0.85607814
H        5.26060091       0.89139831      -0.42127913
H        6.98062395       3.39243666       0.28767714
H        7.47512110       0.29502755       0.01237460
