11
Properties=species:S:1:pos:R:3 -1201.0324272300156=T 10.944733=T 11.49467=T -8.0943=T -6.1686=T -8.553=T 0.699=T -0.2434=T 0.373=T 8.02098=T 0.22602=T 4.008777345=T 11.0708091288=T 0.421703065=T pbc="F F F"
O        0.90249430      -0.03414946      -0.00745356
C        2.27002309       0.01763674      -0.00077438
C        3.11668849       1.11694713       0.00509873
N        4.41486668       0.63355528       0.01060640
C        4.41589663      -0.73860204       0.00838818
C        3.09149992      -1.14568544       0.00131253
Cl       2.52370392      -2.78365418      -0.00409169
H        0.55695770       0.87470941      -0.00763608
H        2.90193098       2.17970627       0.00578858
H        5.24539180       1.21192499       0.01555435
H        5.32808649      -1.32248870       0.01184694
