11
Properties=species:S:1:pos:R:3 -1198.213589377443=T 8.390511=T 9.30238=T -10.4062=T -8.167=T -11.365=T 0.6546=T -1.4625=T -0.461=T 10.53807=T 1.09392=T 3.6669975374=T 12.6803085906=T 0.225367386=T pbc="F F F"
O        2.01529133      -0.97755761      -0.80209437
C        1.85300361       0.09198316      -0.24599560
C        2.97013466       0.99955613       0.20855706
C        4.36201154       0.43463063      -0.10368646
C        5.42827706       1.32352791       0.34169546
N        6.26570094       2.04918628       0.70576118
H        0.82516535       0.47969763      -0.02936804
H        2.84111065       1.17984266       1.28965640
H        2.81916829       1.98500127      -0.26475586
H        4.46632924       0.26125754      -1.18517225
H        4.48839733      -0.54747561       0.37593248
