14
Properties=species:S:1:pos:R:3 -1455.4216762509275=T 10.858471=T 10.78647=T -8.7739=T -6.8341=T -9.278=T 0.0316=T -1.576=T -0.45=T 8.73387=T 0.98856=T 4.5885234824=T 7.1821742178=T 0.206847176=T pbc="F F F"
C       -1.38923559       0.63138601       0.11976354
C       -1.50352353      -0.85785774      -0.19684984
C       -0.30055318      -1.62876416       0.22895842
C        0.92624233      -1.10078960       0.43490255
C        1.40487731       0.25532140       0.19163387
N        0.90248215       1.33097153      -0.33919781
O       -0.44942811       1.35912038      -0.69909550
H       -2.34309871       1.13984661      -0.07872957
H       -1.12144786       0.78103935       1.17854501
H       -1.69146071      -0.98270941      -1.27654891
H       -2.39966354      -1.26060734       0.30866694
H       -0.43494378      -2.69516885       0.43033261
H        1.71099220      -1.77419198       0.78950031
H        2.46329102       0.41963381       0.42419838
