17
Properties=species:S:1:pos:R:3 -1802.6605787676879=T 12.444202=T 13.05837=T -8.8382=T -6.6683=T -8.678=T 1.156=T -0.1225=T 1.369=T 8.33443=T -0.74673=T 5.9778858012=T 6.0071960916=T 0.246815562=T pbc="F F F"
C        0.92003694      -0.06171977      -0.19893231
C        2.44320539       0.01305928       0.01079714
C        3.17395757      -1.21880039      -0.47542686
C        4.11228894      -0.93745077      -1.38968724
C        4.20069518       0.53978013      -1.67517395
C        3.12472664       1.13902388      -0.77542267
C        2.82049746       2.43894999      -0.68813464
H        0.42891473       0.85776157       0.14963760
H        0.48981171      -0.90733530       0.35828875
H        0.68265126      -0.19383729      -1.26444856
H        2.62718584       0.15479650       1.09344353
H        2.93396193      -2.21918708      -0.10995603
H        4.75336950      -1.67312901      -1.87777748
H        5.20059471       0.94571618      -1.43896284
H        4.02389649       0.77036832      -2.74071366
H        3.34437097       3.19047065      -1.28227962
H        2.03732474       2.80061312      -0.01839117
