12
Properties=species:S:1:pos:R:3 -1262.932290872873=T 9.179988=T 9.60509=T -9.128=T -7.0377=T -10.076=T 1.2172=T -0.5541=T 0.177=T 10.11353=T 0.33559=T 5.8690756876=T 6.8589799116=T 0.353523565=T pbc="F F F"
C        1.72858463      -0.34786778      -1.24246823
C        2.16228451       0.21436704      -0.11202576
C        3.28895367       1.20333791      -0.02127122
O        3.79159314       1.59391776      -1.32017514
C        3.34361266       2.87500122      -1.46698097
N        2.78704969       3.42860307      -0.45523378
O        2.83341990       2.45108548       0.58551463
H        0.89713940      -1.05299826      -1.23581170
H        2.19451736      -0.12263467      -2.20288849
H        1.70172257      -0.01855744       0.85219143
H        4.13269763       0.82451321       0.58023915
H        3.50060485       3.36170246      -2.42495992
