18
Properties=species:S:1:pos:R:3 -1718.6033390785558=T 10.450816=T 11.63814=T -10.1022=T -7.798=T -12.016=T 0.8987=T -0.0865=T 2.847=T 11.53503=T -2.56648=T 9.8411655752=T 10.8842225974=T 0.134345058=T pbc="F F F"
C        0.94928672      -0.07529908      -0.00113645
C        2.47396241       0.03799526       0.07467306
C        3.00867021       1.48124192       0.09538800
C        2.54902425       2.27148359       1.32493523
C        4.54088227       1.46560306      -0.00663495
O        5.13569486       2.76678871      -0.10014703
H        0.63561634      -1.12680116      -0.06965130
H        0.55620502       0.44752780      -0.88712540
H        0.46107027       0.35591619       0.88441493
H        2.91608907      -0.49120471      -0.78740329
H        2.83740356      -0.48858583       0.97569021
H        2.62604238       1.99144461      -0.81242281
H        2.82433050       1.73916881       2.25050057
H        1.46086686       2.42230415       1.33357225
H        3.03093411       3.25812871       1.35080416
H        4.84962319       0.83399949      -0.86153281
H        4.97103483       1.01823923       0.90463836
H        4.85309315       3.15793925      -0.94542272
