15
Properties=species:S:1:pos:R:3 -1563.5634278528673=T 11.244528=T 11.96849=T -9.2445=T -7.1602=T -9.41=T 1.1157=T -0.7521=T -0.21=T 10.73189=T 0.7863=T 4.3573515854=T 6.2910372414=T 0.355714975=T pbc="F F F"
C        4.16554629      -1.15567132      -1.45551004
C        4.05344849      -0.47563502      -0.08250427
C        3.15665653       0.72594758      -0.10117113
C        3.56986002       1.95980010       0.19682733
O        2.66239238       3.02234894       0.14576149
C        3.14288717       4.27121131       0.42747109
O        4.28271734       4.55646746       0.71431760
H        4.80890737      -2.04519527      -1.39980447
H        4.59294116      -0.46898394      -2.19992568
H        3.17935351      -1.47649081      -1.82269427
H        5.05370534      -0.18653954       0.27669772
H        3.65942206      -1.20552630       0.64623101
H        2.11069528       0.58031464      -0.39006046
H        4.58218646       2.23779871       0.49095860
H        2.29978059       4.98205345       0.34569547
