15
Properties=species:S:1:pos:R:3 -1483.4030924749347=T 10.106431=T 11.09753=T -9.0158=T -6.9491=T -10.463=T 1.0721=T 0.1821=T 3.581=T 9.77155=T -3.29701=T 8.6778297344=T 11.1408984146=T 0.557069607=T pbc="F F F"
C        0.31786866       0.72969886      -0.24722579
C       -0.91681618      -0.12335433      -0.04075257
C        0.45396397      -0.74354289       0.03774528
N        0.93368201      -1.12022103       1.34697051
C        1.05708576      -2.56536865       1.58330498
C        2.27296091      -1.72312454       1.37969831
H        0.54579907       1.08408361      -1.25260793
H        0.59627693       1.40506400       0.56167591
H       -1.54003309      -0.35743020      -0.90405309
H       -1.44910117      -0.00753365       0.90335154
H        0.75983073      -1.38900974      -0.80040569
H        0.77570598      -3.23950310       0.76752642
H        0.78106882      -2.90407660       2.58420162
H        2.89736384      -1.43898540       2.22954228
H        2.80282378      -1.83581633       0.42818820
