15
Properties=species:S:1:pos:R:3 -1514.2081083926396=T 12.718894=T 13.95117=T -8.7149=T -6.64=T -9.047=T 1.3514=T -0.1578=T 0.7=T 8.72412=T -0.10563=T 4.1386650786=T 10.3090887392=T 0.41625288=T pbc="F F F"
C        0.96399395      -0.01549460      -0.10220210
C        2.41755042      -0.01331340      -0.02202412
C        3.63090174      -0.01670824       0.05769491
C        5.09082650       0.00764959       0.14226480
C        5.65528196       1.40383211       0.04902229
N        6.43799581       1.84485699       0.96501782
N        6.86776952       3.14933686       0.88205794
H        0.55238580       0.97639798       0.13757143
H        0.52902260      -0.73641820       0.60609068
H        0.61773563      -0.28746230      -1.11067684
H        5.50815196      -0.61452170      -0.67112973
H        5.43373632      -0.43571392       1.09008992
H        5.35468820       2.01917820      -0.81837021
H        7.76277470       3.25233254       1.35594116
H        6.89146489       3.54328811      -0.06682793
