14
Properties=species:S:1:pos:R:3 -1454.1281532520802=T 10.801223=T 11.29609=T -8.732=T -6.7047=T -9.237=T 1.5517=T -0.134=T 0.117=T 8.72045=T 0.50043=T 4.868620255=T 5.28118367=T 0.306171983=T pbc="F F F"
C        4.28019019      -1.92974052       0.86684927
O        4.96522967      -0.81419873       0.25878061
C        4.13383794       0.20019505      -0.13537883
O        2.92099549       0.20639160      -0.01140852
N        4.89263420       1.20796904      -0.69465251
C        4.33448319       2.37916125      -1.20297112
C        5.03376899       3.37974962      -1.75877788
H        5.06187764      -2.66613026       1.07946154
H        3.53272326      -2.34572289       0.17918117
H        3.78239288      -1.61735636       1.79439500
H        5.89933710       1.06706559      -0.73409682
H        3.24890939       2.40197538      -1.10180227
H        6.12016702       3.35217758      -1.85739938
H        4.51376303       4.25924365      -2.13028028
