13
Properties=species:S:1:pos:R:3 -1451.5257084173038=T 9.790671=T 10.43481=T -10.1092=T -7.9645=T -9.947=T 0.3574=T -1.3246=T -0.609=T 9.4722=T 1.13153=T 4.1532086364=T 5.2545018828=T 0.364196598=T pbc="F F F"
C        0.97447278       0.04114095       0.01333865
C        2.45999838      -0.06792151       0.00710180
C        3.26664114      -1.14060714      -0.05451801
C        4.69351282      -0.69864603      -0.02821741
O        4.65213599       0.73564391       0.05425571
C        3.32394690       1.14466644       0.07697309
O        3.00549462       2.31144413       0.14390736
H        0.49605689      -0.94327814      -0.05377131
H        0.63274214       0.66313150      -0.82681743
H        0.63114412       0.54349618       0.92957241
H        2.97152364      -2.18782028      -0.11480289
H        5.24671700      -1.08518974       0.84429581
H        5.24808358      -0.98274028      -0.93837778
