18
Properties=species:S:1:pos:R:3 -1780.1234189405309=T 12.588914=T 13.86995=T -8.7712=T -6.7896=T -9.688=T 0.9672=T 0.0153=T 2.298=T 9.19463=T -1.86739=T 4.3391256434=T 10.7394441452=T 0.662377511=T pbc="F F F"
C        1.16179724      -0.15826514       0.06107108
C        2.66478132      -0.40254804      -0.00651640
N        3.39772921       0.72053138       0.59188473
C        4.86184801       0.56130815       0.58610053
C        5.52617765       1.84570986       1.10209886
C        5.33034650      -0.61632098       1.34086020
C        5.65787742      -1.59085080       1.98970040
H        0.61406811      -0.98052689      -0.42017944
H        0.89477369       0.78236605      -0.44058993
H        0.81656180      -0.09765839       1.10501945
H        2.98322041      -0.47738055      -1.06052735
H        2.91148920      -1.37291565       0.47034621
H        3.09359183       0.83233383       1.56543630
H        5.15602177       0.41980989      -0.47018641
H        5.24923347       2.02699922       2.15082704
H        5.19168204       2.69757403       0.49620681
H        6.61964372       1.76580454       1.05031774
H        5.96044660      -2.44795050       2.55612017
