17
Properties=species:S:1:pos:R:3 -1700.8582241830827=T 10.546524=T 11.86719=T -9.5372=T -7.4766=T -10.69=T 0.792=T -0.9551=T 0.083=T 9.7541=T 0.66405=T 3.744501186=T 13.0400663682=T 0.145408035=T pbc="F F F"
C        2.33929712      -1.11212408       0.98537509
C        2.54421971      -0.13165057      -0.18074997
C        3.03871663       1.21698520       0.32213007
O        2.31563545       1.93395017       1.00979567
C        4.46364112       1.61375233      -0.01897934
C        4.85466149       2.99995384       0.49303800
O        4.75384885       3.10852653       1.90998595
H        1.93843217      -2.06716291       0.62042401
H        1.63433202      -0.69452242       1.71614291
H        3.28707217      -1.32004115       1.50311878
H        1.58198027       0.04439250      -0.68715231
H        3.24608475      -0.54840150      -0.91846093
H        4.58875734       1.54630796      -1.11471314
H        5.13050895       0.83897608       0.40250763
H        4.22975773       3.76213929      -0.00946900
H        5.90344529       3.20928215       0.23654309
H        3.80321893       2.97911657       2.10044350
