18
Properties=species:S:1:pos:R:3 -1744.6996024233272=T 11.224764=T 12.4379=T -8.7666=T -6.6185=T -10.187=T 0.8475=T -0.1187=T 2.834=T 9.47498=T -2.51631=T 8.1232155592=T 10.624050375=T 0.090561536=T pbc="F F F"
C        2.27422209      -0.48707206      -1.38497576
C        2.53462886       0.03249411       0.02647750
O        3.24815828      -0.93172485       0.82474839
C        3.26801032       1.36903237       0.02409820
C        2.59412842       2.62632011      -0.58790082
C        3.17356270       3.38593406       0.62913292
N        3.30779501       2.08115971       1.32792626
H        1.64015352       0.20587183      -1.95708733
H        1.77049883      -1.46193219      -1.34230392
H        3.21951844      -0.61076225      -1.93956759
H        1.58220685       0.17520392       0.56300586
H        4.04769190      -1.18329245       0.32672371
H        4.27603943       1.21992844      -0.42506231
H        1.49763259       2.55951462      -0.54860926
H        2.91285337       2.94005680      -1.58853191
H        4.13524526       3.87318942       0.37981070
H        2.52539547       4.11422745       1.14014202
H        4.15646866       1.94782097       1.88107335
