19
Properties=species:S:1:pos:R:3 -1879.2657912483837=T 12.59914=T 13.75325=T -8.9922=T -6.9876=T -8.975=T 1.0725=T -0.2137=T 1.288=T 8.36462=T -0.60745=T 6.0716688116=T 0.370478026=T pbc="F F F"
C        1.81873940      -0.54875539       1.54486988
C        2.81705114      -0.25487519       0.42492822
O        2.25188387      -0.61421120      -0.86579829
C        3.27642534       1.17939286       0.44900947
C        4.46898795       1.65646351       0.03867754
C        5.57648437       0.79938486      -0.51260918
C        4.77759103       3.12895322       0.10211536
H        2.28330150      -0.39660428       2.53098522
H        1.46913265      -1.58727028       1.47610008
H        0.94374319       0.11628693       1.47260291
H        3.67891130      -0.93215954       0.53728547
H        1.79697069       0.17730674      -1.20539945
H        2.54075307       1.90083569       0.82705405
H        5.31196407      -0.26233102      -0.57137322
H        6.48795704       0.90430799       0.09910334
H        5.84481830       1.13398252      -1.52812912
H        3.93955235       3.70756440       0.51255943
H        5.01382502       3.52299156      -0.90022976
H        5.66662772       3.31659661       0.72647807
