15
Properties=species:S:1:pos:R:3 -1568.0863636336867=T 11.596528=T 11.78502=T -8.4153=T -6.5822=T -9.359=T 0.5261=T -1.0885=T 0.106=T 8.52804=T 0.3385=T 4.6247273944=T 5.8825033714=T 0.307142696=T pbc="F F F"
C        1.03770912      -0.03754320       0.20900169
C        2.36328911       0.02866787       0.03899275
C        3.21936324       1.27216724      -0.05315611
C        4.49649896       0.78124874      -0.76447002
N        4.52574066      -0.63247094      -0.40548340
C        3.26793007      -1.15538286      -0.14269843
N        3.04351227      -2.42348066      -0.09137721
H        0.51986967      -0.99797264       0.25496411
H        0.42630917       0.86026295       0.30705181
H        3.47193723       1.62088884       0.96130036
H        2.72735419       2.09850171      -0.58200269
H        4.41592290       0.93072467      -1.85761126
H        5.40135611       1.29704534      -0.41278429
H        5.22613864      -1.26204255      -0.78788984
H        2.06606866      -2.59677450       0.16914251
