14
Properties=species:S:1:pos:R:3 -1509.8230185329626=T 10.864688=T 11.44569=T -7.3102=T -5.3239=T -7.668=T 0.5662=T -0.4539=T 1.021=T 7.26876=T -0.41163=T 4.5116149666=T 12.094462342=T 0.490355288=T pbc="F F F"
C        0.96309480      -0.03764697      -0.00843586
C        2.45062495       0.06402300       0.00015806
C        3.30155629       1.15061856       0.00422721
C        4.65491200       0.68138330       0.01092749
C        4.59125482      -0.69454551       0.01077306
O        5.63094300      -1.58762113       0.01636289
N        3.26375669      -1.07347388       0.00419881
H        0.52998015       0.97063130      -0.00226069
H        0.57073457      -0.56870153       0.87517879
H        0.57967080      -0.55415605      -0.90455389
H        2.98412471       2.18977040       0.00247919
H        5.56494544       1.27121094       0.01558143
H        5.28811740      -2.49709515       0.01578784
H        2.91828437      -2.02695728       0.00279568
