17
Properties=species:S:1:pos:R:3 -1807.10910338849=T 13.37638=T 13.42458=T -8.2602=T -6.303=T -8.141=T 0.7588=T -0.774=T 0.356=T 7.59276=T 0.22046=T 4.8813412186=T 0.688065565=T pbc="F F F"
C        1.05272449      -0.14835605      -0.37134018
C        2.39128401       0.00810267      -0.35854421
C        3.08987038       1.27369109      -0.22739726
C        4.43409797       1.42138844      -0.16508412
C        4.85165311       2.85331261       0.02354054
C        3.54896682       3.63998599      -0.27057380
C        2.40033886       2.61877148      -0.08435195
H        0.60126422      -1.13552038      -0.47198717
H        0.37242175       0.70050796      -0.28036752
H        3.02709279      -0.87940002      -0.45028055
H        5.14367211       0.59183804      -0.20174699
H        5.20800148       3.01803941       1.05807790
H        5.68446870       3.14938496      -0.63458724
H        3.56357724       3.98384798      -1.31570839
H        3.43552199       4.52907031       0.36453228
H        1.59207012       2.75943854      -0.81845473
H        1.93565397       2.69682697       0.91501339
