22
Properties=species:S:1:pos:R:3 -2084.251515735934=T 12.996728=T 14.3652=T -9.2078=T -6.9045=T -10.609=T 0.8546=T -0.077=T 2.841=T 9.97402=T -2.49908=T 8.742376846=T 10.6322210524=T 0.132050958=T pbc="F F F"
C        0.99057291       0.05515367       0.01135803
C        2.52265548      -0.09949828       0.00127994
C        2.95315068      -0.85200823       1.27430364
C        2.92824282      -0.91328190      -1.24225600
C        3.13913753       1.32107879      -0.03400788
C        4.66534513       1.42598226      -0.04789819
N        5.06224441       2.84582790      -0.02929751
H        0.64024939       0.58601801      -0.88753753
H        0.65547488       0.62582043       0.89118826
H        0.49545557      -0.92787252       0.03681877
H        2.68906106      -0.28196566       2.17860409
H        4.03698076      -1.03787741       1.29575457
H        2.45011864      -1.82941265       1.33478827
H        2.65612510      -0.38261109      -2.16830544
H        2.41374253      -1.88670871      -1.25162578
H        4.00958887      -1.11118481      -1.27071735
H        2.77225544       1.89307237       0.83524653
H        2.74817475       1.84042013      -0.92936867
H        5.07407200       0.86577160      -0.91222466
H        5.08178207       0.96039491       0.85985380
H        4.74012129       3.30066043      -0.88877612
H        6.08220868       2.92133079      -0.03828078
