18
Properties=species:S:1:pos:R:3 -1796.4576667164247=T 13.045732=T 13.77455=T -9.3416=T -7.1606=T -9.533=T 1.4029=T -0.0664=T 1.293=T 9.04265=T -0.73796=T 6.5911701516=T 0.506821885=T pbc="F F F"
N        1.40608191       0.22911222       0.64983959
C        2.49547896       0.47937383      -0.31547318
C        2.12321279      -0.22289964      -1.64397794
C        3.17973028      -0.12491202      -2.70350283
C        3.77463094      -1.17095419      -3.28855727
C        2.62976454       1.96830157      -0.49442573
C        3.75893168       2.66189337      -0.31423681
H        1.66031765       0.62288241       1.55932737
H        1.29195986      -0.77871928       0.78830793
H        3.47708908       0.07916632       0.01253578
H        1.17824261       0.22460862      -2.00040773
H        1.91330427      -1.28500181      -1.43102990
H        3.47054493       0.88843814      -3.00197756
H        3.51718972      -2.19895793      -3.01808840
H        4.53408290      -1.03779037      -4.06056450
H        1.70475118       2.48323585      -0.78037777
H        4.68840638       2.16870922      -0.01725735
H        3.79503031       3.74253367      -0.46088371
