19
Properties=species:S:1:pos:R:3 -1948.2930698496498=T 12.464453=T 13.34018=T -8.9615=T -6.8667=T -8.954=T 0.9174=T 0.0058=T 1.472=T 8.41141=T -0.81398=T 6.2177863126=T 0.360057701=T pbc="F F F"
C        0.91796050       0.07719540      -0.10387729
C        2.43227365      -0.02765115       0.15943963
C        3.20191197       1.24052321      -0.26249035
C        3.49548170       1.25728032      -1.76716481
C        4.36124292       0.05533269      -2.16434958
C        3.88384294      -1.21975493      -1.52243790
C        3.01572156      -1.25484028      -0.49953372
H        0.48029180       0.91578459       0.45868349
H        0.39893644      -0.84331124       0.20214900
H        0.70945037       0.23205503      -1.17288767
H        2.55715655      -0.15031632       1.25129486
H        2.63530589       2.13762512       0.03331056
H        4.15903496       1.27438577       0.28534924
H        3.99244939       2.19720938      -2.05169671
H        2.54736724       1.22100299      -2.32939955
H        5.41549988       0.23476062      -1.88045498
H        4.37070245      -0.06414387      -3.26075081
H        4.27468085      -2.15926709      -1.92479860
H        2.69386893      -2.22366025      -0.10382481
