17
Properties=species:S:1:pos:R:3 -1723.0598991531429=T 12.060532=T 13.2522=T -8.5899=T -6.5232=T -9.371=T 0.9462=T 0.0682=T 1.283=T 8.90613=T -0.77384=T 6.3874983494=T 0.450223989=T pbc="F F F"
C        0.44524957       0.43646766      -0.31817313
C        1.70278556      -0.38782557      -0.16407948
C        2.34033082      -1.07428970      -1.36136489
C        3.01960120       0.09567724      -0.72015243
O        4.22192187      -0.19233220      -0.02563010
C        4.49016509       0.65394692       1.02155742
C        5.62773371       0.58501660       1.72262603
H        0.33146365       1.15530319       0.50740819
H       -0.44954797      -0.20415685      -0.33271914
H        0.45680727       1.00639792      -1.25931536
H        1.79490265      -0.94349008       0.77299882
H        1.89572750      -0.92817677      -2.34695032
H        2.79890839      -2.04940055      -1.19694143
H        3.03984612       1.05021717      -1.25850133
H        3.70216221       1.38125869       1.24547213
H        6.40095125      -0.14649524       1.48832880
H        5.78575111       1.27195158       2.55070622
