16
Properties=species:S:1:pos:R:3 -1574.8111435227756=T 9.886047=T 11.03753=T -9.9498=T -7.7454=T -11.674=T 0.9719=T 0.021=T 2.903=T 11.31462=T -2.56856=T 9.4550111782=T 11.5598099128=T 0.209734798=T pbc="F F F"
C        1.06309270       0.24872437       0.08508762
C        2.55844283       0.00710627      -0.12206608
O        2.79964409      -0.77505306      -1.30996880
C        3.35008772       1.29929117      -0.11905241
C        3.90320406       1.83939939       1.18150206
C        4.83526197       1.27075625       0.13747669
H        0.87703371       0.76389324       1.03877314
H        0.51667479      -0.70376729       0.08416543
H        0.65682902       0.88072438      -0.72137394
H        2.93790967      -0.63374554       0.69271732
H        2.52202365      -0.23751452      -2.07392953
H        2.99202151       2.04868127      -0.83426051
H        3.73201846       1.25071191       2.08487114
H        3.89408373       2.91824232       1.33904466
H        5.46830260       1.96212729      -0.41913502
H        5.28747948       0.29653256       0.32896824
