20
Properties=species:S:1:pos:R:3 -1957.828607822807=T 12.205069=T 13.5081=T -9.1913=T -6.8864=T -10.575=T 0.9221=T -0.0228=T 3.108=T 9.93738=T -2.79937=T 8.6977294874=T 10.4383441442=T 0.136853258=T pbc="F F F"
N        2.22104224      -0.26358260      -1.59501332
C        2.42433958       0.04780579      -0.16916085
C        3.09142144       1.40871572       0.01418278
C        2.28780068       2.61066365      -0.50737519
C        2.98789723       3.82784066       0.12352045
C        3.56106571       3.32130602       1.48040995
C        3.33918767       1.78777239       1.48641904
H        1.72836250      -1.15478670      -1.68775734
H        3.12999529      -0.39747123      -2.04775298
H        3.01638080      -0.71762707       0.37514158
H        1.43026722       0.07830585       0.31049280
H        4.06850631       1.39081447      -0.50993704
H        1.25085591       2.52702153      -0.13583816
H        2.23524212       2.65135602      -1.60294125
H        3.80743687       4.16742239      -0.52897285
H        2.30805783       4.68295597       0.24706726
H        4.63081158       3.56349153       1.56354077
H        3.06481803       3.79798995       2.33788829
H        4.17817277       1.23671063       1.93612816
H        2.43782823       1.53701503       2.07228789
