19
Properties=species:S:1:pos:R:3 -1930.7230139213686=T 14.813583=T 15.17363=T -8.3634=T -6.4471=T -8.232=T 0.7792=T -0.7636=T 0.384=T 7.74237=T 0.1947=T 5.0367204738=T 0.833178633=T pbc="F F F"
C        0.72502530      -0.36342137       0.05144862
C        2.25252712      -0.21732577      -0.07548726
C        2.84514986      -1.39086245      -0.87724011
C        2.61341010       1.09713273      -0.70768306
C        3.34644354       2.06980270      -0.12815711
C        3.68234800       3.33248160      -0.75957535
C        4.41393064       4.30425930      -0.18090103
H        0.29509405       0.45042428       0.65167855
H        0.46445169      -1.32007696       0.52856985
H        0.24639476      -0.34210603      -0.94039723
H        2.68727117      -0.23798869       0.93944073
H        2.44263548      -1.40694504      -1.90242840
H        2.59365296      -2.35159070      -0.40339678
H        3.93928047      -1.31490800      -0.94496322
H        2.23874120       1.25773879      -1.72821214
H        3.72301835       1.91459531       0.89087349
H        3.30363800       3.48404804      -1.77696524
H        4.80867250       4.18979634       0.83155939
H        4.63848481       5.23623591      -0.69943371
