21
Properties=species:S:1:pos:R:3 -1952.4373322731308=T 12.799615=T 14.26496=T -8.4581=T -6.2943=T -10.008=T 0.8827=T -0.0685=T 3.114=T 9.85043=T -2.83533=T 8.2065217526=T 11.4855546974=T 0.18424864=T pbc="F F F"
C        1.40684549      -0.44080332      -0.17129340
N        2.81141562      -0.06691658      -0.02188833
C        3.01014903       1.38571752      -0.06060525
C        4.49399565       1.73687201       0.02677799
C        4.78704546       3.24191786       0.09397865
C        6.27321109       3.49939548       0.38334272
N        4.29019298       3.90207829      -1.12965122
H        1.31729028      -1.53533802      -0.21644626
H        0.91263610      -0.01114864      -1.06926790
H        0.84279494      -0.09796662       0.71050454
H        3.34878196      -0.48951172      -0.78432641
H        2.48431380       1.81597285       0.81115818
H        2.56551100       1.86170007      -0.95875893
H        5.02647756       1.31370758      -0.84785635
H        4.92073437       1.24388725       0.91482216
H        4.19607737       3.66125019       0.92926235
H        6.90263745       3.07872255      -0.41797525
H        6.58768808       3.04145030       1.33427451
H        6.48070265       4.57846180       0.44325548
H        4.84808514       3.58396410      -1.92998465
H        4.45217394       4.91070706      -1.06304264
