19
Properties=species:S:1:pos:R:3 -1802.797754210649=T 12.01684=T 13.2668=T -8.3922=T -6.2801=T -9.751=T 0.9079=T -0.0353=T 3.215=T 9.11895=T -2.94785=T 7.7931524286=T 12.0126067848=T 0.141144593=T pbc="F F F"
C        1.41972330       0.00769430       1.67767448
C        2.78300924      -0.07984513       1.00056821
N        3.52062207       1.18031294       1.13666042
C        4.83543041       1.17131333       0.53340242
C        5.69390650       2.44498827       0.70227387
N        6.91235793       1.62785354       1.02592154
C        6.05292002       0.40295602       1.15020068
H        0.85313588      -0.92359835       1.53831492
H        0.83425933       0.84070249       1.26411452
H        1.52531060       0.17162376       2.76159751
H        2.65103344      -0.26820162      -0.07891901
H        3.34159351      -0.95221416       1.40403443
H        3.60557681       1.41886729       2.13065590
H        4.71859151       0.90915487      -0.53179182
H        5.38709003       3.04579925       1.57617935
H        5.77936234       3.11621085      -0.16483187
H        7.50061435       1.54845163       0.19334684
H        6.42152366      -0.48888007       0.62083085
H        5.89953908       0.14272078       2.21290676
