14
Properties=species:S:1:pos:R:3 -1354.0165417954906=T 10.374958=T 10.81412=T -8.6351=T -6.6234=T -10.18=T 1.6177=T -0.1053=T 0.868=T 9.67709=T -0.2311=T 4.8773116736=T 6.7054232506=T 0.434816799=T pbc="F F F"
C        0.94278399       0.26487872      -0.50773867
C        2.25536129       0.02360118       0.16001946
N        3.20039759       0.88465239       0.08368860
N        4.37858391       0.44119194       0.80539882
C        5.58705497       0.97529018       0.12001628
C        5.08464895       1.63501359       1.34555839
H        0.72647327      -0.53742028      -1.23034989
H        0.94248483       1.23023276      -1.02785960
H        0.12731770       0.25039582       0.23215946
H        2.40276119      -0.91185123       0.72404364
H        5.40835375       1.48418981      -0.82880014
H        6.44813906       0.30654674       0.15782463
H        5.56598755       1.46486266       2.30964991
H        4.56759196       2.58820573       1.22207910
