18
Properties=species:S:1:pos:R:3 -1743.3670444010302=T 12.403822=T 13.24589=T -8.1483=T -6.1148=T -8.643=T 0.8744=T -0.0666=T 1.426=T 8.1318=T -0.79759=T 5.8686045408=T 0.309846752=T pbc="F F F"
C        1.16646564      -0.15913504       0.58436716
O        2.53109323      -0.22582428       0.16731832
C        3.18369150       0.98242000       0.18553184
C        4.52129164       1.09043349       0.08893779
C        5.43885352      -0.09607770       0.00587654
C        5.13667279       2.46638595       0.04019390
N        6.05575222       2.67961236       1.17675090
H        0.74835254      -1.16387522       0.45188092
H        0.59430367       0.55485317      -0.03323383
H        1.08572758       0.13141272       1.64536300
H        2.53700905       1.86640351       0.24542997
H        4.91901022      -1.02819834       0.25807850
H        6.29354783       0.04179656       0.68338043
H        5.84917132      -0.20213972      -1.01327100
H        4.32875170       3.22206309      -0.03609835
H        5.74293796       2.55982010      -0.87910033
H        5.51326554       2.74157477       2.04239898
H        6.54017205       3.57361461       1.06895526
