20
Properties=species:S:1:pos:R:3 -1887.8152657857386=T 11.641434=T 12.71276=T -9.014=T -6.9454=T -10.076=T 0.7912=T -0.1557=T 2.756=T 9.28556=T -2.42871=T 7.7284317366=T 10.505209794=T 0.079341165=T pbc="F F F"
C        2.80313591      -0.76710105       1.13658989
N        2.68746946       0.04015957      -0.08089685
C        3.05836179       1.47830788       0.01186944
C        2.52410016       2.15241164      -1.25925370
C        2.51992186       2.20061978       1.25614752
C        4.60913178       1.51797938       0.01107792
O        5.14446136       0.69314879      -1.01384041
H        2.53429530      -1.80474176       0.89527209
H        2.16666917      -0.43427436       1.97745120
H        3.84670479      -0.77542755       1.48293906
H        1.74232507      -0.03848113      -0.46046458
H        2.96043876       1.69054561      -2.15503234
H        2.77811140       3.22127089      -1.26416724
H        1.42728791       2.06821056      -1.31536313
H        2.88622142       1.74641304       2.18766098
H        1.41943009       2.18729382       1.27608463
H        2.84087463       3.25309718       1.25396352
H        4.98444620       1.20529104       1.00739379
H        4.95423533       2.55047404      -0.15919546
H        4.47366762      -0.02765736      -1.08324631
