12
Properties=species:S:1:pos:R:3 -1272.421607763257=T 10.107506=T 10.18225=T -8.5577=T -6.5777=T -8.715=T 0.8313=T -0.7562=T 0.099=T 8.13739=T 0.45395=T 4.6380434908=T 11.4244295994=T 0.278010266=T pbc="F F F"
C        0.88283686       0.07296602       0.02359920
C        2.38279014       0.02902827       0.03165656
N        2.94174387      -1.21826616       0.11430512
C        3.13489010       1.17487378       0.00527626
C        4.54494214       1.12208460      -0.00960327
N        5.71463858       1.01691807      -0.02837773
H        0.52006286       1.10568634      -0.00892383
H        0.47647821      -0.41361313       0.92293537
H        0.48265238      -0.46020707      -0.85302565
H        2.38166968      -2.02288646      -0.14156285
H        3.94640397      -1.30835407      -0.01903992
H        2.64900121       2.14800983       0.00000072
