13
Properties=species:S:1:pos:R:3 -1376.3010791924362=T 10.359549=T 11.48091=T -9.8388=T -7.5876=T -10.187=T 0.6578=T -1.401=T -0.265=T 10.35096=T 0.87528=T 3.6633399504=T 10.8501140488=T 0.477009435=T pbc="F F F"
O        0.98865990       2.60632944       0.92338037
C        2.06970186       2.06324022       1.03337988
C        2.84064674       1.45811349      -0.13376169
O        4.20873374       1.22417861       0.16368739
C        4.96874861       2.44411552       0.12091376
C        6.35624687       2.17817747       0.46379544
C        7.52067304       1.99347749       0.74528199
H        2.57234122       1.93162677       2.02815748
H        2.69659109       2.08036804      -1.03707096
H        2.39491005       0.46969519      -0.33760178
H        4.55211588       3.19093398       0.82567488
H        4.90989215       2.88565407      -0.89392385
H        8.54799887       1.82098971       0.99462707
