18
Properties=species:S:1:pos:R:3 -1741.6530013936897=T 11.307355=T 12.43865=T -8.7795=T -6.6446=T -10.132=T 0.855=T -0.1059=T 2.935=T 9.4067=T -2.71286=T 8.0134879492=T 11.5882523012=T 0.098618618=T pbc="F F F"
C        2.06622536      -0.54028259      -1.31781845
N        2.25452758       0.06920303      -0.00125819
C        3.14619242       1.21814932      -0.03264889
C        2.54048118       2.55144329      -0.56209765
C        3.17953660       3.29555727       0.64574778
O        4.36250893       4.04253365       0.35750651
C        3.40406702       1.91476588       1.32836596
H        1.43961663      -1.43746091      -1.22299417
H        3.01281404      -0.82451383      -1.82506447
H        1.53667732       0.16639327      -1.97473408
H        2.63779411      -0.62760359       0.64345705
H        4.10285749       0.99174251      -0.55662950
H        1.44267565       2.52892516      -0.49473612
H        2.84097219       2.90548549      -1.55826412
H        2.53041961       4.00017140       1.18195060
H        4.96858374       3.46923600      -0.14542236
H        4.37876083       1.76575557       1.81389797
H        2.59893930       1.67992907       2.04057213
