14
Properties=species:S:1:pos:R:3 -1445.9081246734156=T 10.309047=T 11.02847=T -9.3655=T -7.1668=T -9.525=T 0.7969=T -1.1044=T -0.167=T 9.03039=T 0.79446=T 3.6574382168=T 5.6522861666=T 0.247054111=T pbc="F F F"
C        0.79228716       0.11183155       0.07572555
C        2.28115333       0.00593508       0.18865931
C        3.15268901       0.93607544      -0.22864492
C        4.64880141       0.84339981      -0.08852407
C        5.13344274       1.79961696       0.99030239
O        5.88002970       2.74094132       0.80403264
H        0.38182937      -0.70711204      -0.53659298
H        0.48713900       1.06561623      -0.37610412
H        0.31356171       0.03105502       1.06471033
H        2.67263776      -0.91591773       0.63706882
H        2.77149371       1.86034060      -0.67814419
H        5.16681872       1.09071185      -1.02663264
H        4.93164384      -0.17689919       0.22229570
H        4.71972254       1.58314509       2.00990819
