17
Properties=species:S:1:pos:R:3 -1595.2248757962357=T 11.336484=T 11.88388=T -8.8365=T -6.8856=T -9.929=T 0.8699=T -0.1742=T 0.871=T 9.21104=T -0.34227=T 4.9170739838=T 6.2951907724=T 0.160474479=T pbc="F F F"
C        4.87860080       1.65827212      -1.86213204
C        4.74446051       1.55658664      -0.35606836
O        5.81067047       2.35117421       0.21951435
N        5.72557859       2.28913624       1.64260021
C        6.84028274       1.51582841       2.18276938
C        5.44028254       3.53680793       2.21497900
N        5.01887514       4.60443695       1.65086999
H        4.09079564       1.06316109      -2.34345466
H        5.85311373       1.27798674      -2.19742338
H        4.77669240       2.69931409      -2.19798803
H        4.84358989       0.51171106      -0.01426538
H        3.77376677       1.94443366      -0.00567739
H        6.75833935       0.47300263       1.85078115
H        6.77308745       1.53592184       3.27839613
H        7.81548474       1.92413233       1.86967945
H        5.55613359       3.50177517       3.30819824
H        5.00036566       4.46395889       0.62889135
