15
Properties=species:S:1:pos:R:3 -1549.6799811428145=T 10.052432=T 11.25219=T -9.7332=T -7.6011=T -10.657=T 0.7408=T -1.1395=T 0.05=T 9.90738=T 0.70874=T 3.7105538192=T 10.8628970054=T 0.082634521=T pbc="F F F"
C        2.47396569      -0.60376667      -1.42029923
C        2.51177180      -0.00223853      -0.01411568
C        3.47325313       1.17063411       0.09256036
O        3.06841327       2.35585326      -0.67846029
C        3.04445376       3.21814360       0.49342573
C        3.42542469       2.02338325       1.36879323
O        3.58983977       1.82500586       2.54686064
H        1.75585167      -1.43373336      -1.47127525
H        3.46082078      -0.99231967      -1.71314747
H        2.17398507       0.15125886      -2.15981273
H        2.83276527      -0.75514978       0.72448698
H        1.50599002       0.33312346       0.28579361
H        4.50223982       0.86485798      -0.17843915
H        3.80047199       4.02092837       0.45212860
H        2.05031326       3.65405925       0.68781064
