17
Properties=species:S:1:pos:R:3 -1755.728859662301=T 11.42643=T 12.43018=T -8.1946=T -6.1131=T -8.666=T 0.9359=T 0.0264=T 1.38=T 8.13771=T -0.75745=T 5.826660077=T 0.290040316=T pbc="F F F"
C        1.00934114      -0.09869881       0.16164390
C        2.49471086       0.03221997       0.03609265
C        3.16014590       1.17480327      -0.22596807
C        4.66239242       1.26369120      -0.24292821
C        5.26702477      -0.00579796       0.36841390
C        4.50602441      -1.22410928      -0.13679720
O        3.11248738      -1.18557562       0.23686755
H        0.61409901      -0.79826968      -0.59086268
H        0.52142094       0.87505965       0.03601021
H        0.74357947      -0.50234268       1.15070472
H        2.57266095       2.07849491      -0.39244787
H        5.03741632       1.40821823      -1.27283622
H        4.99407297       2.15011604       0.32303678
H        6.33329021      -0.10818906       0.11583079
H        5.18920111       0.02877032       1.46677219
H        4.89074700      -2.16098021       0.28808493
H        4.56619513      -1.28449029      -1.23912737
