22
Properties=species:S:1:pos:R:3 -2080.2259921769937=T 13.089103=T 14.55655=T -8.4855=T -6.434=T -9.999=T 0.8998=T -0.0069=T 3.203=T 9.2377=T -2.901=T 8.05723021=T 10.836004442=T 0.129764695=T pbc="F F F"
C        2.73740683      -0.32720791      -1.76913589
C        3.95029077      -0.07749398      -0.87931390
N        4.49290350       1.26454451      -1.10454053
C        5.53302423       1.67813030      -0.14758993
C        6.82121762       0.87468272      -0.35836271
C        5.76511209       3.19578826      -0.27163067
C        6.29820523       3.67316268      -1.62616708
H        2.35139960      -1.34645875      -1.62867257
H        3.00058981      -0.19582968      -2.82835424
H        1.92037068       0.37285923      -1.53258447
H        4.73234503      -0.81601203      -1.11788943
H        3.67370153      -0.24567499       0.18691655
H        3.71828290       1.93258564      -1.03374762
H        5.19598422       1.49031703       0.89928057
H        7.16530935       0.95164486      -1.39950180
H        6.67624120      -0.18958453      -0.12806161
H        7.61569513       1.24811388       0.30433034
H        6.45650568       3.50058060       0.53128323
H        4.80935370       3.70570937      -0.05398737
H        7.30931395       3.28876910      -1.82274836
H        6.35307190       4.77074154      -1.65545288
H        5.64948505       3.33842215      -2.44715962
