18
Properties=species:S:1:pos:R:3 -1733.364941596115=T 11.919052=T 12.8762=T -9.4866=T -7.3746=T -10.583=T 1.5223=T -0.1786=T 0.509=T 10.07987=T 0.10567=T 5.5230307616=T 11.1874179618=T 0.19757194=T pbc="F F F"
C        0.94007286      -0.07483063       0.03697581
C        2.46780882      -0.04605393      -0.07945658
C        2.94598149      -0.82634100      -1.30863940
C        3.00688137       1.40333798      -0.12232707
C        2.75214174       2.17347431       1.13325391
N        2.06109948       3.25318445       1.10107362
O        1.94396987       3.82065610       2.39961376
H        0.58823410       0.47444560       0.92158352
H        0.57148737      -1.10850039       0.10876281
H        0.47415216       0.38824708      -0.84769698
H        2.89124983      -0.53252842       0.81899843
H        2.56156130      -0.37076366      -2.23531506
H        2.59145067      -1.86703872      -1.27782354
H        4.04413922      -0.84516279      -1.37377476
H        2.56323252       1.94730247      -0.97152183
H        4.09787327       1.36551326      -0.29184468
H        3.16011057       1.80141925       2.08575564
H        1.41040335       4.61538904       2.21961239
