20
Properties=species:S:1:pos:R:3 -1933.6483014858031=T 12.527228=T 13.99939=T -8.6113=T -6.4679=T -10.06=T 0.9625=T 0.0632=T 3.101=T 9.32672=T -2.82282=T 8.1429789276=T 10.1379756606=T 0.129035992=T pbc="F F F"
C        1.08387171       2.27854486      -0.27486389
N        2.51985966       2.17038025      -0.51768262
C        3.16882388       1.18800022       0.35014813
C        4.66974279       1.14412971       0.12355816
C        5.55414825       2.32443033       0.62731891
C        6.63266738       1.28439542       1.03350639
C        5.52975048       0.19280590       1.00009281
H        0.66344794       3.08437003      -0.89250537
H        0.81329152       2.47326873       0.78535343
H        0.59166184       1.34005572      -0.57444647
H        2.95590750       3.08318191      -0.36287984
H        2.73507683       0.19745183       0.12161631
H        2.97081142       1.37409829       1.43261066
H        4.86807100       0.96149027      -0.94515962
H        5.10562145       2.79955004       1.51530114
H        5.83694097       3.10684348      -0.09096257
H        7.36883224       1.13614936       0.23021734
H        7.17020263       1.44389861       1.97812076
H        5.78574912      -0.79339651       0.58849773
H        5.07470140       0.05441158       1.99370860
