17
Properties=species:S:1:pos:R:3 -1628.5923158189755=T 11.284762=T 12.28979=T -8.5818=T -6.6323=T -9.467=T 0.8661=T -0.0766=T 1.159=T 8.65575=T -0.53662=T 5.0608109536=T 6.0625930364=T 0.16505843=T pbc="F F F"
C        0.67052802       3.01740933       2.14774881
N        1.47177460       2.11044006       1.35051969
C        2.54817863       2.55165323       0.61890780
N        2.90378345       3.76539387       0.35855213
C        3.36023207       1.43409547      -0.01392098
O        3.26149738       0.24568290       0.77132121
C        3.91194290      -0.85560288       0.15111314
H       -0.07921681       2.43807090       2.69919564
H        0.13455652       3.73446949       1.50592111
H        1.27732204       3.58887749       2.87303234
H        1.51910030       1.13162857       1.62550539
H        2.25865840       4.44416292       0.78294004
H        4.40529532       1.77536413      -0.10252347
H        2.97159235       1.24556999      -1.03476226
H        3.78418825      -1.72146112       0.81269126
H        4.99160923      -0.66064065       0.01588974
H        3.46783733      -1.08221372      -0.83630160
