16
Properties=species:S:1:pos:R:3 -1603.236726445323=T 11.264119=T 12.15818=T -8.9509=T -6.8036=T -9.446=T 0.8166=T -0.2218=T 1.165=T 8.95558=T -0.58847=T 6.4490573984=T 0.421520807=T pbc="F F F"
N        1.04769270      -0.17019218      -0.22875549
C        2.48396657      -0.13297289      -0.03796028
C        3.26556605      -0.78009914      -1.16694954
O        2.52671544      -1.35756859      -2.20779582
C        3.29193234       0.72452765      -1.01996131
C        4.46621974       1.49071139      -0.53423525
C        5.72175950       1.03533725      -0.42737534
H        0.61307647       0.72396711       0.00849631
H        0.62416117      -0.88434221       0.36800216
H        2.89037071      -0.20749511       0.97692778
H        4.16067385      -1.35466529      -0.92346662
H        1.59554127      -1.10435772      -2.00428058
H        2.66041090       1.24416696      -1.74865363
H        4.25661717       2.52328713      -0.22821280
H        5.99819165       0.02303762      -0.72979120
H        6.51924448       1.67012801      -0.03988837
