11
Properties=species:S:1:pos:R:3 -1192.0713794408957=T 9.260116=T 9.58483=T -8.4751=T -6.5767=T -9.027=T 1.5869=T -0.0768=T 0.135=T 8.60226=T 0.35863=T 4.707500448=T 6.7319314574=T 0.17600294=T pbc="F F F"
C        2.09292641       0.02440019       0.57876114
O        1.44501939       0.44125365      -0.72913169
C        2.15071446       1.65094437      -0.60078261
C        2.54173886       2.91319308      -0.99579728
N        3.40917403       3.27980777       0.03408702
N        3.58453014       2.35161980       1.02661231
C        2.79174888       1.37213599       0.59035252
H        2.71470047      -0.86499142       0.41483205
H        1.31697537      -0.14958152       1.33510765
H        2.33873907       3.57663692      -1.82797450
H        3.90955290       4.15804115       0.10894340
