21
Properties=species:S:1:pos:R:3 -1944.6099853206736=T 12.952637=T 14.65725=T -8.601=T -6.4013=T -10.018=T 0.9204=T -0.017=T 3.245=T 9.70588=T -2.97409=T 8.1487194794=T 11.6624083278=T 0.177316117=T pbc="F F F"
C        0.99197938      -0.09784026      -0.05836904
N        2.44776645      -0.01459274       0.01916006
C        2.93565707       1.36345724      -0.02507522
C        4.46186070       1.41961071      -0.01315116
C        4.99926050       2.84922160      -0.00216076
N        6.46086369       2.87414275       0.04327010
C        7.00113317       4.23016231       0.00129218
H        0.68288623      -1.15169013      -0.09587403
H        0.55022663       0.42786650      -0.93241337
H        0.55247905       0.34425563       0.84955723
H        2.85599409      -0.53511076      -0.76169895
H        2.54338461       1.88288618       0.86764449
H        2.54698839       1.92463500      -0.90618117
H        4.85008215       0.89396813      -0.90594605
H        4.84267380       0.87732721       0.86547745
H        4.63066516       3.37113137       0.89908444
H        4.59063638       3.41034070      -0.87424708
H        6.82528351       2.34268562      -0.75179406
H        6.72449835       4.76179106       0.92525917
H        6.63966859       4.83968284      -0.85498399
H        8.09843210       4.19021904      -0.04137025
