13
Properties=species:S:1:pos:R:3 -1486.3934810138294=T 12.189589=T 11.71954=T -8.0638=T -6.1377=T -7.801=T 0.427=T -1.0725=T -0.121=T 7.29165=T 0.7048=T 3.918453544=T 6.3696319668=T 0.51742969=T pbc="F F F"
C        2.80721313      -1.12127975       0.40909693
C        2.23507693       0.07580344       0.17807023
C        2.91630475       1.34354868       0.09629412
C        2.45654105       2.62382108      -0.13109314
C        3.59329272       3.48666861      -0.10174395
C        4.67312907       2.68305211       0.14089195
O        4.28635911       1.37651183       0.26489230
H        2.20446380      -2.02718394       0.45279549
H        3.88274420      -1.22049037       0.55825314
H        1.15344110       0.14180429       0.03245722
H        1.42087141       2.90362089      -0.29893212
H        3.61217584       4.56290054      -0.24174307
H        5.73572688       2.87047258       0.25026088
