14
Properties=species:S:1:pos:R:3 -1417.480811975249=T 11.947313=T 11.94842=T -8.5616=T -6.7633=T -8.988=T 0.3451=T -1.3514=T -0.584=T 8.41465=T 1.01506=T 4.4340741222=T 0.264626311=T pbc="F F F"
C        1.40129560      -0.44392357      -0.84252731
N        2.83531150      -0.26210411      -0.67604678
N        3.26866367       0.98962349      -0.51591712
C        4.48913075       1.18058919      -0.08323576
C        5.45373898       0.08559896       0.29287700
C        4.91817115       2.53749812       0.01592743
N        5.34337038       3.62291638       0.13175794
H        1.21736020      -1.44083552      -1.26227957
H        1.03643317       0.31287339      -1.54675140
H        0.84774376      -0.34196195       0.10613439
H        3.34722287      -1.02322925      -0.21936267
H        5.04875334      -0.54355535       1.10408290
H        6.40420806       0.50399295       0.63994973
H        5.66147656      -0.56811272      -0.57021879
