13
Properties=species:S:1:pos:R:3 -1367.8522203333152=T 11.551834=T 11.05547=T -8.6923=T -6.7942=T -9.063=T -0.4814=T -2.3535=T -1.407=T 8.38969=T 1.81109=T 3.2566286746=T 5.7006531052=T 0.352967118=T pbc="F F F"
C        1.28552673       0.21724179      -0.89225270
C        2.33123817      -0.16803436      -0.14195249
N        3.59907381       0.39110775      -0.20284712
C        4.69727199       0.03140389       0.54557408
N        4.86336895      -0.86642599       1.46065829
C        5.91132447       0.85753490       0.20952710
O        5.90358629       1.74008405      -0.63238132
H        0.32468762      -0.27837967      -0.77854232
H        1.36175992       1.02197226      -1.62467383
H        2.22900023      -0.97637065       0.58460645
H        3.78363892       1.15471282      -0.85963876
H        4.00761852      -1.40321465       1.65481745
H        6.81090439       0.58341787       0.80344515
