17
Properties=species:S:1:pos:R:3 -1692.6850473725829=T 10.283422=T 11.43495=T -9.665=T -7.4759=T -11.399=T 0.9073=T -0.0165=T 2.66=T 10.76137=T -2.34402=T 8.9964489572=T 13.1127717586=T 0.130149547=T pbc="F F F"
C        1.08070012      -0.11020593       0.14831679
C        2.58351233       0.02807274      -0.08433855
C        2.92144278       0.21275107      -1.56374401
C        3.22821583       1.12235535       0.80761748
O        4.46750773       0.54855233       1.23305952
C        4.12294420      -0.81068666       1.43747724
O        3.26158448      -1.18557084       0.37144993
H        0.86724884      -0.31432541       1.20667673
H        0.67606121      -0.93629265      -0.45248601
H        0.55500267       0.81263473      -0.14076685
H        4.00248544       0.36028271      -1.69089795
H        2.39122704       1.08111725      -1.98203880
H        2.62503707      -0.67999276      -2.13173315
H        2.58488307       1.34434648       1.68138882
H        3.44766344       2.05279086       0.26848567
H        5.03686133      -1.42058322       1.40464718
H        3.60446242      -0.93148605       2.41441596
