16
Properties=species:S:1:pos:R:3 -1641.938201942939=T 11.320771=T 12.01573=T -9.1277=T -7.1507=T -9.829=T 1.188=T -0.399=T 0.462=T 9.52611=T 0.19566=T 4.305475843=T 6.493642764=T 0.331113524=T pbc="F F F"
C        0.88103686       0.00609116      -0.17991713
C        2.41198453       0.01607295      -0.06980518
C        3.06305169      -0.61592642      -1.26943410
C        3.95353225      -1.61655020      -1.23155952
C        2.91045181       1.45822163       0.22374873
N        4.16401220       1.74259568      -0.23848466
O        2.23786125       2.26570008       0.85947730
H        0.44170482       0.53694223       0.67347858
H        0.50561528      -1.02524725      -0.20420547
H        0.55213064       0.51527648      -1.09800941
H        2.70629692      -0.55931393       0.82747279
H        2.75686581      -0.20937726      -2.24165041
H        4.27289532      -2.05882519      -0.28383981
H        4.38220904      -2.03506588      -2.14357981
H        4.70868128       1.04594668      -0.73621140
H        4.57069030       2.64372924      -0.01032051
