14
Properties=species:S:1:pos:R:3 -1483.2348790968751=T 12.944914=T 13.79437=T -8.5636=T -6.6556=T -8.369=T 0.8263=T -0.6675=T 0.116=T 7.7783=T 0.59684=T 4.232076131=T 11.5664555624=T 0.430740822=T pbc="F F F"
C        0.91328969       0.09177219      -0.00586274
C        2.40497939      -0.01319231      -0.00145259
N        3.22273902       1.00829360       0.00348942
C        4.54822567       0.61443332       0.00659291
C        5.62297151       1.65827886       0.01168840
C        4.74499685      -0.74522582       0.00402812
S        3.22436085      -1.57662627      -0.00271060
H        0.63950519       1.15318518       0.00226962
H        0.47158521      -0.39347802       0.87624692
H        0.47813847      -0.37785007      -0.89967585
H        6.62074984       1.20280267       0.02395494
H        5.52366068       2.30916245       0.89252732
H        5.54167681       2.29992918      -0.87785655
H        5.68168081      -1.29531497       0.00579068
