17
Properties=species:S:1:pos:R:3 -1616.5833903072362=T 11.436482=T 12.09759=T -8.2529=T -6.1863=T -9.459=T 0.9937=T 0.0026=T 0.7=T 9.08176=T -0.16587=T 5.0843806922=T 5.730074983=T 0.161254706=T pbc="F F F"
C        1.08883659      -0.07460815       0.00299046
C        2.50671758      -0.54353672      -0.30202133
C        2.57790225      -1.53108434      -1.45592975
O        3.33485217       0.59707319      -0.70164383
C        3.87366857       1.34710582       0.29193741
N        3.68530815       1.13562483       1.53856621
N        4.42112151       1.92430212       2.43807709
H        1.08764138       0.64661134       0.82960350
H        0.46524782      -0.93206093       0.29465862
H        0.63950530       0.39356097      -0.88503198
H        2.95987335      -0.97117094       0.60622658
H        2.17392625      -1.08442747      -2.37615988
H        1.98686847      -2.42671475      -1.21910126
H        3.61496442      -1.83920471      -1.64400573
H        4.50366775       2.14776078      -0.12711566
H        3.85337963       2.03770516       3.27850811
H        4.63479882       2.85858378       2.06295145
