19
Properties=species:S:1:pos:R:3 -1770.4952376994086=T 11.294062=T 12.3202=T -9.0552=T -6.7745=T -10.477=T 0.7665=T -0.2442=T 2.802=T 9.80913=T -2.48264=T 8.4751374216=T 10.4265530756=T 0.093478214=T pbc="F F F"
C        0.82887419      -0.21184712      -0.10042965
C        2.33932997       0.05350066      -0.18787901
O        2.98191079      -0.34748889       1.03615834
C        2.99355829      -0.76426879      -1.31135353
N        2.78769143      -2.20167478      -1.10028113
C        2.63036935       1.55658466      -0.40092043
N        2.34138754       2.28963852       0.84495935
H        0.31110206       0.12329449      -1.01287334
H        0.39293821       0.30923236       0.76451809
H        0.65430112      -1.28793958       0.01797165
H        2.88917819       0.44498351       1.61233163
H        4.06090793      -0.46476096      -1.35123970
H        2.53247108      -0.48297867      -2.27324385
H        3.23754284      -2.46409938      -0.21851466
H        3.25596520      -2.73039405      -1.83832787
H        2.07253076       1.92823501      -1.28060803
H        3.70542082       1.67038241      -0.60940050
H        1.35042906       2.53083512       0.90696258
H        2.86212116       3.16616545       0.87935005
