15
Properties=species:S:1:pos:R:3 -1550.5313383246246=T 9.880308=T 10.81161=T -9.6444=T -7.4369=T -10.774=T 0.859=T -1.0863=T 0.019=T 9.97637=T 0.64695=T 3.680338431=T 10.3554223074=T 0.093321839=T pbc="F F F"
O        0.91271911       0.23587103       0.12177829
C        2.32207494       0.07565384       0.06134464
C        3.23880235       1.04226456       0.88386695
C        4.12787171      -0.17015914       1.26345186
C        2.99006488      -1.12322449       0.81455011
C        2.65644983       0.08586185      -1.42374812
O        3.77709645      -0.03279546      -1.88090887
H        0.64866246       0.23682175       1.05764288
H        2.68014791       1.44187500       1.74361977
H        3.70198486       1.87326293       0.33571481
H        5.00210788      -0.24956726       0.60671494
H        4.44920038      -0.24040690       2.31021437
H        3.25709328      -2.00096838       0.21142248
H        2.34935833      -1.43948961       1.65144728
H        1.75887561       0.21544029      -2.08032138
