17
Properties=species:S:1:pos:R:3 -1695.6172624229237=T 10.51607=T 11.57082=T -10.1619=T -7.9478=T -11.165=T 0.6161=T -1.3232=T -0.296=T 10.31155=T 0.9278=T 3.6945472266=T 8.6927700474=T 0.096174334=T pbc="F F F"
C        0.99486377      -0.22281418       0.32619167
C        2.42341357      -0.11160491      -0.21842581
C        2.72525594      -1.17136097      -1.28227221
C        2.75336583       1.32166007      -0.72132266
O        4.13952686       1.47424990      -0.93792155
C        1.98497809       1.71682482      -1.96235340
O        2.55232564       2.12742609      -2.96387446
H        0.78253672       0.55152866       1.07899114
H        0.85006516      -1.20079153       0.80707971
H        0.23836293      -0.14132497      -0.46927782
H        3.12238233      -0.26186974       0.62201090
H        2.02688631      -1.10287955      -2.13199876
H        2.63105033      -2.18118054      -0.85794274
H        3.74752674      -1.05744117      -1.66711959
H        2.40916196       2.02920437       0.06827713
H        4.21775876       1.85274403      -1.84216589
H        0.87365905       1.64277964      -1.91903565
