13
Properties=species:S:1:pos:R:3 -1402.7194527875633=T 10.014183=T 10.35177=T -7.6852=T -5.8063=T -8.532=T 0.8368=T -0.041=T 0.779=T 8.21406=T -0.15284=T 4.8421244468=T 5.0765695742=T 0.154564007=T pbc="F F F"
C        0.97477229       0.00362538      -0.00869761
N        2.42561748       0.02021913       0.00092502
C        3.26327498       1.13508845       0.00212521
C        4.54842940       0.69173083       0.00842963
N        4.49809252      -0.70082874       0.01058593
C        3.17862634      -1.16049240       0.00531170
O        2.76273313      -2.31871384       0.00469550
H        0.60722530       1.03542864       0.01038794
H        0.59237567      -0.53530185       0.86911490
H        0.60101361      -0.49917011      -0.91161922
H        2.87403618       2.14616828      -0.00074471
H        5.47921426       1.24432619       0.01216415
H        5.28459884      -1.33871994       0.01449156
