15
Properties=species:S:1:pos:R:3 -1603.5758669211464=T 10.561206=T 11.19436=T -9.3264=T -7.1085=T -9.079=T 1.1938=T 0.0215=T 1.287=T 8.57901=T -0.66355=T 6.106186514=T 0.308349505=T pbc="F F F"
C        0.89161629      -1.39101287       0.67409340
O        1.41848407      -0.08125998       1.03502302
C        0.77093753       0.53866615      -0.12090636
C       -0.25321166       1.61214900       0.27034750
C       -1.54218653       0.83227480       0.38582299
C       -1.41200593      -0.44581072      -0.00432567
C       -0.00595790      -0.77308512      -0.42386466
H        1.68780619      -2.05274102       0.29000058
H        0.37810020      -1.87447320       1.52065089
H        1.51939825       0.87521490      -0.85646295
H        0.04724641       2.08691228       1.21892660
H       -0.32502181       2.41596065      -0.48316676
H       -2.47102000       1.27837137       0.74590837
H       -2.21622684      -1.18377591      -0.00544511
H        0.07692172      -1.22457034      -1.42308183
