17
Properties=species:S:1:pos:R:3 -1697.1776118026016=T 11.573377=T 12.11414=T -8.0094=T -6.0804=T -8.89=T 0.802=T -0.1686=T 1.098=T 8.07426=T -0.46379=T 4.8369294334=T 8.0051436914=T 0.167326325=T pbc="F F F"
C        0.96057034      -0.04609276       0.01500255
N        2.39536591       0.04764251      -0.16211853
C        3.04955240       1.27927808       0.26615317
C        4.48704636       1.29889700      -0.25275793
C        5.19502017      -0.01078749       0.10951026
N        4.44273841      -1.21325731      -0.25808723
C        3.16351625      -1.08806360      -0.33817516
H        0.45168628       0.77083293      -0.52139661
H        0.66547085       0.00570065       1.08044974
H        0.60221045      -1.00003958      -0.39382896
H        2.47629534       2.13384773      -0.13101563
H        3.03217499       1.36236396       1.37153473
H        5.02139315       2.16719066       0.16077663
H        4.47023435       1.41189306      -1.34843317
H        5.40213194      -0.04359457       1.19541420
H        6.17749038      -0.05815053      -0.38680161
H        2.56921242      -1.97231073      -0.60728643
