13
Properties=species:S:1:pos:R:3 -1324.406773201772=T 11.079067=T 11.10776=T -9.3338=T -7.3565=T -11.001=T -0.5355=T -2.3932=T -1.412=T 10.0763=T 1.78021=T 3.2045049602=T 5.7469246804=T 0.611997136=T pbc="F F F"
O        5.07911376      -1.80491655       0.87839761
C        5.28806491      -0.62822000       1.13046602
C        5.27481384       0.43225384       0.09778455
N        5.50945009       1.63674636       0.48417007
N        5.47054145       2.57037750      -0.59991354
C        6.42903128       3.68620803      -0.29932129
C        4.98892957       3.89073940      -0.07160438
H        5.50444373      -0.26554306       2.16406393
H        5.06864742       0.16013943      -0.94699817
H        6.91500521       4.07583092      -1.19387289
H        7.06192834       3.54471320       0.57776702
H        4.63768913       3.88907358       0.96110790
H        4.38015128       4.43577735      -0.79307684
