14
Properties=species:S:1:pos:R:3 -1468.683933087126=T 10.835262=T 11.91658=T -9.2467=T -7.041=T -9.36=T 0.9779=T 0.0779=T 2.278=T 8.98382=T -1.86361=T 4.3014586966=T 9.3919395=T 0.514279609=T pbc="F F F"
C        1.01303182      -0.00933035      -0.04945423
C        2.52298883      -0.03040941      -0.01572413
C        3.31105370      -0.71400505      -1.09670864
C        3.31142028       0.81155190      -1.01687216
C        4.49232744       1.51454089      -0.60981206
C        5.49456390       2.10829444      -0.26090183
H        0.61288334       0.85197574       0.50576131
H        0.59683945      -0.92414717       0.39902635
H        0.64048108       0.05344234      -1.08292195
H        2.96956586      -0.06671685       0.98079082
H        2.76383245      -1.15833148      -1.92985131
H        4.23787929      -1.21920531      -0.82678797
H        2.70890833       1.32323131      -1.77268771
H        6.37655424       2.63296900       0.04342349
