17
Properties=species:S:1:pos:R:3 -1619.478659164851=T 10.605888=T 11.53778=T -9.399=T -7.2166=T -10.571=T 0.8578=T -0.127=T 2.634=T 10.34608=T -2.31218=T 8.3571275468=T 11.7009431766=T 0.148374648=T pbc="F F F"
N        1.32595225      -0.03215646       0.91615908
C        2.14741727      -0.03834204      -0.31495776
C        3.16497392       1.08586907      -0.23707594
C        4.17285168       0.97482013       0.89459595
O        3.57642951       1.08120272       2.18530164
C        3.55472731       1.81758816      -1.47260273
N        2.57681575       2.41732634      -0.53757880
H        0.71707202      -0.85231781       0.94618502
H        0.71652168       0.79117525       0.89274957
H        1.55259183       0.07438389      -1.23961791
H        2.67386110      -1.00524185      -0.36873992
H        4.91757909       1.78492586       0.81191841
H        4.72210947       0.01551893       0.78630534
H        2.73272052       0.56806612       2.11656943
H        3.14064671       1.51660071      -2.43867399
H        4.56542916       2.23205479      -1.51604966
H        3.04353075       3.12180620       0.04480229
