18
Properties=species:S:1:pos:R:3 -1786.3955264619844=T 11.455195=T 12.9811=T -9.3688=T -7.3525=T -10.811=T 0.7073=T -0.2497=T 0.544=T 9.70047=T 0.1021=T 4.3548594668=T 11.5062479608=T 0.194641791=T pbc="F F F"
C        1.14548446      -0.54193960      -0.04017485
C        2.65454497      -0.29303692       0.00034912
C        3.01371342       1.19526476      -0.00157505
C        4.52003760       1.44180286       0.04110489
C        4.89222388       2.92588842       0.01829071
N        6.24370413       3.17449728       0.03246429
O        4.06638134       3.83462950      -0.00826540
H        0.91450442      -1.61684261      -0.04454230
H        0.69419092      -0.09873832      -0.94095300
H        0.64574877      -0.09548622       0.83297275
H        3.13152010      -0.78656465      -0.86478591
H        3.08216581      -0.77369288       0.89790578
H        2.54169103       1.69826939       0.85739910
H        2.59446752       1.68221640      -0.89646409
H        5.01498712       0.94576077      -0.81246247
H        4.95792066       0.98972443       0.94861558
H        6.93237057       2.43163024       0.04314802
H        6.55602329       4.13969714       0.01293281
