15
Properties=species:S:1:pos:R:3 -1550.8088330760245=T 10.009799=T 11.00847=T -9.6858=T -7.5249=T -11.04=T 1.0063=T -0.9424=T -0.079=T 10.11455=T 0.72525=T 3.7199023636=T 11.8036035846=T 0.12307298=T pbc="F F F"
O        0.92905741       0.13207337       0.18180948
C        2.33974119       0.03220018       0.04263425
C        3.10639007       1.01160394       0.95403824
C        4.12165079      -0.14891937       1.25442580
C        3.08352241      -1.15916231       0.71193469
C        5.38244665      -0.00829720       0.44475726
O        5.69690796      -0.69622375      -0.51020673
H        0.51399493      -0.42689019      -0.49737405
H        2.64473552       0.14436181      -1.01229405
H        2.50820921       1.25087890       1.84340329
H        3.49098751       1.94039739       0.51001437
H        4.41165968      -0.23110033       2.31431991
H        3.47132382      -1.95100507       0.05835397
H        2.47455923      -1.58561151       1.52001772
H        6.04705362       0.83089414       0.78293585
