17
Properties=species:S:1:pos:R:3 -1619.4440179441403=T 14.41438=T 14.97064=T -7.7143=T -5.9318=T -8.66=T 0.6656=T -0.5079=T -0.017=T 7.79414=T 0.75636=T 3.2372248656=T 10.7176226092=T 0.874723095=T pbc="F F F"
C        2.73295471      -1.02019288       1.12142461
C        2.30600843      -0.06525833       0.00670827
C        3.00122310       1.30499513       0.07399031
N        4.45351473       1.25993577      -0.07465841
C        5.16129762       1.33932109      -1.23691095
N        4.42530652       1.37143354      -2.39981104
S        6.84151090       1.45487493      -1.24603298
H        2.21160915      -1.98361399       1.03898401
H        2.50318317      -0.60076257       2.11319371
H        3.81292811      -1.22183151       1.07946495
H        1.21815549       0.10948719       0.05224670
H        2.50210173      -0.53410959      -0.97275249
H        2.79101707       1.77144555       1.04918586
H        2.59019953       1.98554493      -0.68920565
H        5.04191952       1.28975268       0.75233072
H        3.51660483       0.91495310      -2.43154037
H        4.99279538       1.27984495      -3.23680725
