16
Properties=species:S:1:pos:R:3 -1579.9972642513617=T 11.538022=T 12.73618=T -9.3682=T -7.1887=T -9.755=T 0.9181=T -0.0741=T 2.249=T 9.41699=T -1.85832=T 4.389600344=T 10.7675145756=T 0.305740044=T pbc="F F F"
C        1.70354141      -0.51840929      -0.49109797
O        3.04757316      -0.06018856      -0.42705180
C        3.13364499       1.28545942       0.02666636
C        4.62345935       1.68709686      -0.00384710
N        5.26458731       1.56848583      -1.32393605
C        4.76899504       3.04190247       0.52786279
C        4.84013693       4.17324114       0.96056751
H        1.73324363      -1.55474292      -0.85022114
H        1.10125229       0.09110794      -1.19049625
H        1.21975261      -0.49387373       0.50307991
H        2.73428940       1.37826125       1.05572331
H        2.55155280       1.95999009      -0.63362805
H        5.15315416       0.99155193       0.67296296
H        4.86389532       2.26938941      -1.95474240
H        5.01223176       0.65192756      -1.70537665
H        4.92852985       5.16926062       1.34412456
