13
Properties=species:S:1:pos:R:3 -1364.712881481513=T 10.509782=T 11.47805=T -9.5423=T -7.4993=T -9.989=T 0.7137=T -0.3572=T 0.504=T 9.85006=T 0.09954=T 4.4017261748=T 10.9355404028=T 0.380025352=T pbc="F F F"
N        0.99708588      -0.31365491      -0.34587402
C        2.31840021      -0.26816337       0.10632927
O        2.74865869      -1.00944790       0.98780002
N        3.08915875       0.70227380      -0.51627072
C        4.41979264       0.99310368       0.01356021
C        5.30215363       1.54629777      -1.00795070
C        6.03391267       2.03662109      -1.84205841
H        0.83734133      -0.08625264      -1.32475475
H        0.52861598      -1.16600807      -0.04861315
H        2.60957549       1.47089332      -0.97791011
H        4.81658356       0.04385904       0.40388642
H        4.37426928       1.68735328       0.87319099
H        6.68857189       2.45505489      -2.57916505
