13
Properties=species:S:1:pos:R:3 -1397.7306624016073=T 9.619583=T 10.56523=T -7.6762=T -5.6439=T -8.948=T 1.0522=T 0.2171=T 1.055=T 8.62923=T -0.54731=T 5.6172725202=T 11.7189583424=T 0.310484955=T pbc="F F F"
C        0.81256098      -0.07284384       0.03375201
C        2.27257654       0.39608717      -0.14395575
C        1.13352997       1.34432410      -0.29090967
O        0.92412221       2.36785518       0.68942202
C        0.49173670       3.47284017      -0.03628309
C        0.42395204       3.18946744      -1.33933495
O        0.80614805       1.87416937      -1.58111453
H        0.47018468      -0.28967237       1.04574945
H        0.37648589      -0.68165093      -0.75844787
H        2.79391833       0.09454995      -1.05262195
H        2.88743151       0.48667256       0.75167026
H        0.27576494       4.37412206       0.52375465
H        0.13441816       3.78232915      -2.19799058
