19
Properties=species:S:1:pos:R:3 -1803.6892420181784=T 11.998298=T 13.16759=T -8.4495=T -6.3199=T -9.866=T 0.8449=T -0.0644=T 3.133=T 9.44639=T -2.85302=T 7.947564593=T 11.5135755334=T 0.110354073=T pbc="F F F"
C        2.16790466      -0.53562419      -1.44253491
N        2.26196671       0.02446532      -0.09398050
C        3.10353864       1.20927006      -0.03499346
C        2.49240536       2.55524281      -0.49244305
N        3.01653819       3.24120474       0.74148243
C        3.29031758       1.88588291       1.34447390
C        4.60061405       1.72398881       2.08735545
H        1.57865390      -1.46233584      -1.41750422
H        3.15072474      -0.75580865      -1.91152308
H        1.63948742       0.17415418      -2.09703484
H        2.64399147      -0.68494654       0.53739496
H        4.09602206       1.06162953      -0.52130901
H        1.39093012       2.53052759      -0.47468857
H        2.83372623       2.97855145      -1.44762188
H        3.91874713       3.67417469       0.51461239
H        2.44134644       1.62593484       2.00212193
H        5.45849709       1.92455147       1.42612809
H        4.70803329       0.70250904       2.48291851
H        4.65294491       2.41738777       2.93983588
