12
Properties=species:S:1:pos:R:3 -1318.8201177737524=T 8.595225=T 9.39023=T -9.6647=T -7.5689=T -10.624=T 0.7511=T -0.1911=T 0.378=T 10.33937=T 0.19238=T 4.8418640762=T 12.7568947428=T 0.142226111=T pbc="F F F"
O        1.60987446       0.14938628       1.17388070
C        2.36453017       0.03467463       0.23670264
N        2.86698739      -1.12902814      -0.33129469
C        3.89423933      -0.85722821      -1.29300703
C        5.08409904      -0.02625316      -0.83045272
C        3.85792880       0.64660084      -1.39138531
O        2.88325483       1.12031257      -0.46904220
H        2.85328831      -1.96821249       0.24055191
H        3.95238233      -1.50945421      -2.16435602
H        5.27075630       0.05515764       0.24110976
H        5.96781086      -0.03016989      -1.46894969
H        3.86882818       1.20660414      -2.32458734
