14
Properties=species:S:1:pos:R:3 -1421.5226255019415=T 11.864109=T 12.7011=T -9.2596=T -7.2369=T -9.773=T 1.4322=T -0.3398=T 0.454=T 9.38362=T 0.17573=T 4.4164805088=T 10.8501760418=T 0.851820651=T pbc="F F F"
C        0.21563472       0.49393647      -0.39099313
C        1.50936392      -0.19897264      -0.12516877
N        2.52064496       0.47624855       0.28399892
O        3.64464955      -0.36589833       0.47586999
C        4.73183950       0.46847783       0.93320633
C        5.90394877      -0.36509937       1.14222671
C        6.89986991      -1.02998930       1.33226925
H       -0.09171704       0.35255460      -1.43881196
H        0.30266943       1.56765627      -0.18591977
H       -0.58540636       0.07265455       0.23609495
H        1.58911806      -1.28434687      -0.28124407
H        4.44296786       0.97025768       1.87264582
H        4.94139083       1.24800474       0.18073054
H        7.77703589      -1.62227417       1.49549518
