14
Properties=species:S:1:pos:R:3 -1442.1059923987962=T 9.918395=T 10.50419=T -9.4082=T -7.4222=T -10.553=T -0.065=T -2.0571=T -1.359=T 10.52703=T 1.72222=T 3.170569992=T 7.6703690928=T 0.189433708=T pbc="F F F"
C        0.99639718      -0.20767386      -0.47123653
N        2.33794223       0.00166500       0.06273855
C        3.09885638      -1.20302272       0.37689536
C        2.91477700       1.21492233       0.28035677
O        4.05458320       1.38718668       0.73502397
C        2.19893478       2.51949214      -0.08518212
O        1.52900942       2.72584348      -1.08021915
H        0.49771885       0.74610681      -0.65362813
H        0.40546810      -0.80599959       0.23984386
H        1.05098808      -0.75613267      -1.42475616
H        2.52716987      -1.83577743       1.07242923
H        4.04867762      -0.90786040       0.83419139
H        3.29773798      -1.77901320      -0.54050404
H        2.50306932       3.33551342       0.61311700
