20
Properties=species:S:1:pos:R:3 -1934.3984651300073=T 12.508682=T 13.64433=T -8.2595=T -6.2941=T -9.76=T 0.977=T 0.09=T 3.308=T 8.96941=T -3.02493=T 7.9019625422=T 11.0223182042=T 0.127361584=T pbc="F F F"
C        1.12506139       0.09471774       0.16661392
C        2.63456505      -0.04365762      -0.03869226
C        2.95736823      -0.73294902      -1.36556583
N        3.26243177       1.27553083      -0.00005105
C        3.22473875       2.02739215       1.28157236
C        4.65674408       2.53078831       0.99033143
C        4.74740683       1.34053099       0.00854696
H        0.89055253       0.57703861       1.12639171
H        0.64437449      -0.89374193       0.16314994
H        0.68503059       0.70168960      -0.63888357
H        3.04251553      -0.67481535       0.79008711
H        2.55986852      -0.14539375      -2.20678520
H        2.50969816      -1.73632273      -1.39640993
H        4.04158077      -0.84616986      -1.50863131
H        3.20309055       1.35683381       2.16685387
H        2.41505438       2.76734542       1.36926940
H        4.66296258       3.49939535       0.47515342
H        5.36437701       2.54878133       1.82700349
H        5.21687552       1.50339563      -0.97323200
H        5.20860328       0.45217047       0.49017754
