21
Properties=species:S:1:pos:R:3 -2015.10886930882=T 12.42044=T 13.84432=T -9.1867=T -7.1937=T -11.228=T 0.9011=T 0.0004=T 3.131=T 10.46706=T -3.14152=T 9.0385050084=T 12.715818181=T 0.207488675=T pbc="F F F"
C        2.81457801      -1.04384665       1.24542271
C        3.47088443      -0.85210066      -0.12367505
C        2.50526023      -1.13254613      -1.26877196
O        3.92677164       0.50337537      -0.29009108
C        5.21325839       0.79019280       0.28869397
C        6.34354386       0.35535531      -0.64693118
C        5.24296705       2.28815417       0.56720164
H        3.50736621      -0.79797081       2.06266570
H        2.49564762      -2.08801506       1.38097478
H        1.93171477      -0.39388217       1.33467059
H        4.33410361      -1.54131551      -0.20918923
H        1.66689091      -0.42122627      -1.23637153
H        2.09878506      -2.15118439      -1.19537632
H        3.01170484      -1.02333592      -2.23696813
H        5.31123403       0.24732860       1.24975043
H        6.27789090       0.90516095      -1.59742077
H        6.29450374      -0.72053611      -0.86716726
H        7.32455595       0.55824001      -0.19207780
H        5.09339369       2.84762351      -0.36798631
H        6.20957219       2.58504968       0.99806180
H        4.44383288       2.56747929       1.26662500
