15
Properties=species:S:1:pos:R:3 -1514.589898020098=T 10.183985=T 10.77855=T -8.773=T -6.806=T -10.=T 0.8246=T -0.1407=T 0.494=T 9.61432=T 0.18977=T 4.325003638=T 5.8201012176=T 0.113228956=T pbc="F F F"
N        1.16814824       0.02231396       0.28668494
N        2.45476050       0.07145693      -0.30201839
C        3.28915159       1.25715822      -0.11173726
C        4.59725754       0.83925408      -0.80935532
C        4.64009161      -0.68907428      -0.63889727
C        3.18457288      -1.09111257      -0.43535982
O        2.70747197      -2.22116505      -0.33437776
H        1.05872523      -0.96175872       0.57647953
H        0.48054232       0.16081935      -0.46361624
H        3.42593771       1.45920836       0.96617468
H        2.82282958       2.14128315      -0.56896813
H        4.54478027       1.09846752      -1.87632245
H        5.46791809       1.35030377      -0.38059168
H        5.07897967      -1.22851090      -1.48743194
H        5.19393281      -0.99462383       0.26350710
