15
Properties=species:S:1:pos:R:3 -1613.3701139096565=T 12.704892=T 14.78509=T -9.5474=T -7.2531=T -9.155=T 0.8352=T -0.0261=T 1.92=T 8.74505=T -1.63777=T 4.141194393=T 10.3265087722=T 0.868825601=T pbc="F F F"
C        0.94589542       0.14409022       0.00366146
C        2.48317773       0.07370513      -0.00016770
C        3.11559968       1.38896202      -0.00011477
C        3.61303527       2.49741234      -0.00000043
C        4.23316799       3.82461109       0.00008879
C        3.27172088       4.93037230       0.00006699
C        2.49302047       5.85971771       0.00004875
H        0.51725400      -0.86769647       0.00347355
H        0.57813078       0.67774274      -0.88287757
H        0.58245332       0.67558206       0.89327590
H        2.82680031      -0.49181895      -0.88268734
H        2.83108342      -0.49393587       0.87931038
H        4.89226490       3.92502322      -0.88050678
H        4.89216365       3.92496761       0.88076658
H        1.79869219       6.67487486       0.00003219
