15
Properties=species:S:1:pos:R:3 -1566.938856219595=T 11.588046=T 11.99029=T -8.5029=T -6.5712=T -9.435=T 1.0453=T -0.4532=T 1.048=T 8.65943=T -0.44141=T 4.9387591352=T 6.0495125134=T 0.310939144=T pbc="F F F"
C        1.01673048      -0.00961163       0.13650805
C        2.34546887      -0.01596952      -0.00075967
C        3.22395499       1.22276700      -0.07635459
N        4.43636240       0.71404019      -0.70152056
C        4.57831817      -0.65784943      -0.64792193
N        5.67364107      -1.25320219      -0.96422015
C        3.24527489      -1.22154220      -0.15625465
H        0.44277936      -0.93661170       0.17824760
H        0.45754121       0.92475747       0.21480375
H        3.41637903       1.63019449       0.93627306
H        2.75619983       2.01897295      -0.67661505
H        5.27138759       1.28218992      -0.81088426
H        5.55906767      -2.26919302      -0.88635924
H        2.84159944      -1.96666570      -0.85633503
H        3.41122503      -1.73233664       0.80686268
