16
Properties=species:S:1:pos:R:3 -1594.466491372809=T 9.894241=T 10.8429=T -9.1408=T -7.0881=T -10.507=T 1.3026=T -0.5084=T 0.314=T 9.55282=T 0.40988=T 3.7542092898=T 11.6207366332=T 0.191765981=T pbc="F F F"
C        0.96668240      -0.15557069      -0.12327577
C        2.49981884      -0.02924422      -0.04062015
C        3.19177807      -0.87123052      -1.12116456
C        2.89281127       1.45201631      -0.08101874
C        2.90149530       2.15387576      -1.42716209
O        3.18024732       2.05152509       0.94629865
H        0.47492546       0.43162515       0.66458355
H        0.67014991      -1.20731002       0.00056855
H        0.58442882       0.18421326      -1.09795104
H        2.81997464      -0.37727593       0.95421570
H        2.87239682      -0.58060372      -2.13327664
H        2.93819841      -1.93316874      -0.98897859
H        4.28643862      -0.78082733      -1.06787679
H        2.04183603       1.86686085      -2.04924342
H        3.80807924       1.86329841      -1.98066712
H        2.91633884       3.23861635      -1.27504154
