15
Properties=species:S:1:pos:R:3 -1545.76328242175=T 11.088184=T 12.37111=T -9.3895=T -7.2676=T -10.402=T 0.7982=T -0.1711=T 1.405=T 9.68645=T -1.0177=T 5.277154125=T 11.1568554128=T 0.296220063=T pbc="F F F"
C        2.90265775      -1.10548345      -0.47588375
N        2.37908154       0.12341396       0.13035051
C        3.35053471       1.18088750       0.17973308
C        3.46209045       2.07981730      -1.01721091
C        2.79690010       2.59966990       0.25273408
C        3.46176691       3.57878619       1.06279587
N        4.01161540       4.37104558       1.72321811
H        2.12307341      -1.87849600      -0.45286644
H        3.80860023      -1.50578247       0.02118828
H        3.15316152      -0.91184769      -1.52895157
H        2.04290437      -0.07419095       1.07599966
H        4.28333720       1.01716615       0.73994972
H        2.78672890       1.88504226      -1.84992853
H        4.43954262       2.48700686      -1.27154588
H        1.70865490       2.67633487       0.22697776
