17
Properties=species:S:1:pos:R:3 -1741.6745712884083=T 11.813006=T 12.75553=T -9.4372=T -7.3184=T -9.949=T 0.6327=T -1.1936=T -0.242=T 9.42761=T 0.85594=T 3.6572646364=T 5.9764475636=T 0.283884953=T pbc="F F F"
C        2.54947508      -1.05314328       1.50283579
C        3.63517712      -0.31570762       0.71884449
C        3.34903001       1.18335916       0.55836003
C        3.39993391       1.95063146       1.85775477
C        2.48070975       2.82703253       2.27922285
C        4.31439490       1.86529198      -0.41385523
O        5.27338018       1.33414589      -0.93824700
H        2.79447304      -2.11958494       1.60420393
H        1.57482997      -0.98306532       0.99564022
H        2.42598042      -0.63838854       2.51376630
H        3.75261687      -0.75642118      -0.28282333
H        4.61327915      -0.43709232       1.21173530
H        2.34462315       1.33783971       0.11542622
H        4.29529307       1.77508268       2.46588508
H        1.57360095       3.02760800       1.70370819
H        2.60017880       3.36539993       3.22048958
H        4.07029365       2.94183185      -0.60772719
