15
Properties=species:S:1:pos:R:3 -1420.693829385989=T 8.656158=T 9.44464=T -10.1506=T -7.8151=T -12.055=T 0.9392=T -0.072=T 2.929=T 11.57379=T -2.66239=T 9.8669794604=T 10.4770897692=T 0.097075132=T pbc="F F F"
C        0.98477240      -0.01141146       0.01216652
C        2.51714660      -0.01356169      -0.03175009
C        3.04811184      -0.78000631      -1.24675078
C        3.04455625       1.42731056      -0.00121254
O        4.47372496       1.52735288       0.03682859
H        0.60268070       0.51681390       0.89886234
H        0.58971329      -1.03726941       0.03518908
H        0.56823064       0.48333819      -0.88010752
H        2.88424240      -0.51571628       0.88527905
H        2.65602576      -0.34368618      -2.17998106
H        2.74160446      -1.83578172      -1.21571513
H        4.14470819      -0.73693088      -1.29218811
H        2.59180111       1.97062590       0.85050733
H        2.74264729       1.95243615      -0.92274775
H        4.77071410       1.15813632       0.88702008
