11
Properties=species:S:1:pos:R:3 -1171.013211759733=T 12.990365=T 13.59861=T -9.0128=T -7.2628=T -9.979=T 0.2388=T -1.2886=T -0.778=T 9.25704=T 1.37039=T 4.594859167=T 11.068912143=T 0.333764765=T pbc="F F F"
C        0.93395611       0.00605993      -0.00519454
C        2.42929029       0.04735457      -0.00119262
N        3.07048136       1.21198981       0.00149639
S        4.73168672       0.94283158       0.00540315
C        4.61675123      -0.77123541       0.00323330
C        3.28289919      -1.10387170      -0.00028944
Cl       2.68088292      -2.74051201      -0.00334858
H        0.53497132       1.02600234       0.00068254
H        0.55694489      -0.53460462       0.87493850
H        0.56143908      -0.52221724      -0.89478885
H        5.47836688      -1.43178724       0.00474016
