13
Properties=species:S:1:pos:R:3 -1379.5975000446267=T 9.933475=T 10.63592=T -9.1748=T -7.0265=T -8.685=T 1.0377=T -0.4088=T 0.317=T 8.27445=T 0.32381=T 4.5528031158=T 11.8460191952=T 0.248305518=T pbc="F F F"
N        2.64631007      -0.57202555      -1.33959539
C        2.41165299       0.04409667      -0.02221592
C        2.84552316       1.47113937      -0.00822999
N        2.15082719       2.53893363       0.26775926
C        3.05567849       3.59071541       0.14976135
C        4.27422864       3.09949611      -0.20115173
O        4.16537816       1.73030616      -0.30409303
H        2.30313256      -1.53474174      -1.32423080
H        3.65221338      -0.62763986      -1.51838678
H        2.90736748      -0.47951503       0.82170447
H        1.33343883       0.05044701       0.18390001
H        2.76178533       4.62169798       0.32090193
H        5.24799373       3.52684985      -0.40871337
