14
Properties=species:S:1:pos:R:3 -1342.350224098158=T 9.393483=T 9.76839=T -9.2526=T -7.0337=T -9.555=T 1.0009=T -0.0305=T 1.38=T 9.02729=T -0.82289=T 6.722210955=T 0.442264957=T pbc="F F F"
C        0.87671282      -0.07620866      -0.06367215
C        2.41296903       0.01736058       0.01103510
N        3.11802930      -0.74790732      -1.03988238
C        2.85515171       1.45720190      -0.05023216
C        3.40690038       2.13949686       0.95691473
H        0.40031047       0.46007327       0.77076302
H        0.55214228      -1.12746199      -0.02742233
H        0.50601148       0.36107545      -1.00462516
H        2.74278230      -0.39789792       0.97920210
H        2.85096174      -0.38182565      -1.95994847
H        2.79216306      -1.71878538      -1.02362567
H        2.67441833       1.96410181      -1.00777127
H        3.60374342       1.66747530       1.92313531
H        3.68385368       3.18960175       0.85269933
