11
Properties=species:S:1:pos:R:3 -1205.9020236362962=T 10.898479=T 11.44123=T -7.7779=T -5.837=T -8.373=T 0.8518=T -0.1198=T 0.468=T 7.89455=T 0.17607=T 3.5847204278=T 10.8142944934=T 0.529743926=T pbc="F F F"
O        0.91894701      -0.09321715       0.00611169
C        2.27133265       0.03598285       0.00066700
C        3.10103802       1.14201528      -0.00173396
Cl       2.50250315       2.77662537       0.00221694
C        4.45146499       0.68355767      -0.00772446
C        4.40270146      -0.69526832      -0.00878518
N        3.06641025      -1.07871599      -0.00363111
H        0.54912878       0.81094423       0.00847291
H        5.34330998       1.30045676      -0.01081759
H        5.19460658      -1.43440748      -0.01273973
H        2.71260714      -2.02874322      -0.00307650
