19
Properties=species:S:1:pos:R:3 -1806.2790914894467=T 11.902353=T 13.03819=T -8.543=T -6.4425=T -9.697=T 0.8411=T -0.1545=T 3.157=T 8.98644=T -3.53326=T 7.6690424426=T 11.1635878526=T 0.319257809=T pbc="F F F"
C        0.79331568       1.44619498       0.89271802
N        1.74481322       1.10414244      -0.16434762
C        3.11671308       1.50216571       0.08401270
C        3.81317967       0.94927342       1.32335813
N        3.81849868      -0.52556058       1.31441497
C        3.94628194       1.71818833      -1.15658039
C        3.47371861       2.90762769      -0.34615846
H        1.00929087       1.01006172       1.89032537
H       -0.21134849       1.11727133       0.59162849
H        0.76393419       2.53993531       1.01141337
H        1.71683373       0.10217724      -0.36887175
H        3.34450322       1.38506993       2.22987513
H        4.85936059       1.29168871       1.31883354
H        2.89061596      -0.87448993       1.57006124
H        4.45018941      -0.87099181       2.04009446
H        3.45419385       1.54086746      -2.11264614
H        5.00078780       1.44364651      -1.11420137
H        4.20777693       3.45778549       0.24510895
H        2.66908106       3.51040603      -0.76755865
