15
Properties=species:S:1:pos:R:3 -1451.708467470572=T 11.284349=T 11.51021=T -9.3546=T -7.3202=T -9.891=T 1.2115=T -0.5089=T 0.774=T 9.69541=T -0.27873=T 4.9244511508=T 6.8171098394=T 0.519518338=T pbc="F F F"
C        1.22800925      -0.80371983       0.72010433
C        2.15917835      -0.25597090      -0.06707056
C        2.45699328       1.20811476      -0.10180422
O        3.87676884       1.36858265       0.16537906
N        4.20994995       2.74805689       0.07189323
C        4.74091017       3.28056549       1.25732947
N        4.68290151       2.81936034       2.44642816
H        1.01140619      -1.87217509       0.68842415
H        0.64277662      -0.19812757       1.41642669
H        2.73998930      -0.88080130      -0.75266573
H        1.86810838       1.75954742       0.64908777
H        2.23627973       1.62961424      -1.09923561
H        4.81695051       2.87887880      -0.74401152
H        5.19941123       4.26248809       1.06213842
H        4.24706668       1.88416602       2.43199636
