10
Properties=species:S:1:pos:R:3 -1151.6580127646787=T 9.747811=T 9.80808=T -10.6048=T -8.598=T -10.179=T -1.0975=T -2.884=T -1.141=T 9.85053=T 1.59615=T 4.462504112=T 9.7566567176=T 0.302901179=T pbc="F F F"
N        0.95538984       0.14747346      -0.00071903
C        2.12442633       0.12836532      -0.00045831
C        3.54303430       0.02821942       0.00042040
N        4.32260363       1.07606170      -0.00722409
N        5.68007612       0.61898255      -0.00374918
C        5.68035548      -0.67731974       0.00578764
C        4.30870965      -1.25923476       0.00994296
H        6.61605005      -1.23780037       0.00997068
H        4.09887876      -1.88874437      -0.87025866
H        4.09870584      -1.87582321       0.89919758
