14
Properties=species:S:1:pos:R:3 -1511.0983106530032=T 10.668966=T 10.99241=T -8.1558=T -6.1519=T -8.146=T 1.1561=T -0.4366=T 0.709=T 7.61323=T -0.16847=T 4.6050384176=T 6.9159638772=T 0.607539883=T pbc="F F F"
C        0.96305072       0.04505131       0.00188165
C        2.45934193      -0.01991463       0.00415153
C        3.24965162      -1.12582033       0.00682464
C        4.69333554      -0.71471396       0.00854511
C        4.62987931       0.78606875       0.00645256
C        3.33022054       1.16788377       0.00397893
H        0.51597094      -0.95766373      -0.00019274
H        0.59075430       0.58727204      -0.88192817
H        0.58797704       0.58478152       0.88606280
H        2.90935172      -2.16069497       0.00761747
H        5.23986497      -1.10357347      -0.87037550
H        5.23712632      -1.10123080       0.89019328
H        5.50272966       1.43665360       0.00687971
H        2.96179539       2.19492089       0.00199875
