17
Properties=species:S:1:pos:R:3 -1674.5370295198697=T 10.365356=T 11.60708=T -9.5484=T -7.2658=T -11.449=T 0.8101=T -0.184=T 2.605=T 10.90969=T -2.30468=T 9.206456444=T 13.944767413=T 0.079069792=T pbc="F F F"
C        2.33049550      -0.52815724      -1.42512766
C        2.49517733       0.02995032      -0.01411963
O        3.09932727      -0.93219955       0.87002168
C        3.26963641       1.34587881       0.00656926
C        2.51933991       2.59705549      -0.50375814
O        2.52624814       3.20471875       0.81741086
C        3.29645589       2.08794186       1.35818560
H        1.80262879       0.18291233      -2.07776029
H        1.75914612      -1.46555607      -1.40223411
H        3.31396774      -0.73138734      -1.87992761
H        1.49895240       0.20683405       0.42776959
H        3.94720247      -1.20380732       0.47291619
H        4.26235697       1.20079750      -0.44978273
H        1.49102820       2.42153554      -0.86693469
H        3.06293862       3.21273133      -1.24019040
H        4.29064433       2.41551161       1.70346129
H        2.76955390       1.58085993       2.18251079
