11
Properties=species:S:1:pos:R:3 -1238.4684169444442=T 10.02731=T 10.89167=T -10.0419=T -7.8831=T -10.333=T 0.2075=T -1.7607=T -0.538=T 10.32814=T 1.15033=T 3.61915134=T 10.49603483=T 0.466234858=T pbc="F F F"
O        1.04324881      -0.23046527       0.58793225
C        1.89371519       0.33706961      -0.07025788
C        3.01775057       1.11706000       0.53190496
O        4.19397774       1.25671679      -0.28534688
C        3.37757749       2.42788359      -0.10067488
C        3.89287542       3.50245381       0.70030004
C        4.30904849       4.43708668       1.35248715
H        1.89909068       0.32069026      -1.19071287
H        3.18365134       0.99734532       1.60705798
H        2.82092375       2.72947345      -0.99647377
H        4.68493052       5.25440574       1.93400389
