15
Properties=species:S:1:pos:R:3 -1549.6065616447233=T 10.393289=T 11.05264=T -9.1504=T -7.0189=T -9.817=T 0.9484=T -0.8971=T 0.094=T 9.82864=T 0.60279=T 3.7539613178=T 6.4299015614=T 0.297181688=T pbc="F F F"
C        1.72708582      -1.11498036       0.90507631
C        1.70615594       0.33970277       0.51073941
O        0.68021182       0.99300905       0.39907026
C        3.05349049       1.05020210       0.30804247
O        4.18086502       0.19529180       0.09939591
C        4.32600386      -0.31999159      -1.16068362
C        3.51468635      -0.17568991      -2.21884244
H        2.13400156      -1.71606914       0.07835360
H        0.71040447      -1.44479606       1.14195254
H        2.39615897      -1.27176304       1.76369825
H        3.26848665       1.59380369       1.24146026
H        2.95195780       1.79088881      -0.50068976
H        5.24567425      -0.90690946      -1.20792901
H        2.58687214       0.39373026      -2.20505726
H        3.79805486      -0.65436891      -3.15384692
