19
Properties=species:S:1:pos:R:3 -1816.1412664249378=T 12.713423=T 13.57297=T -9.0637=T -6.8689=T -8.793=T 0.8879=T -0.0761=T 1.506=T 8.20526=T -0.81449=T 6.1260614698=T 0.372155951=T pbc="F F F"
C        1.09113190      -0.89852206      -0.01364147
C        2.47150135      -0.32259236      -0.12286732
C        2.84810226       0.96587614      -0.01461989
C        1.90190664       2.11583613       0.24532334
N        2.04057726       2.57150955       1.64644485
C        4.30594263       1.35318681      -0.12898164
N        4.52933673       2.17705774      -1.33426000
H        1.04126079      -1.63537880       0.80445109
H        0.81610493      -1.44033663      -0.93313829
H        0.32144870      -0.13822466       0.17142360
H        3.26663963      -1.05787095      -0.30155004
H        0.86914190       1.84306717      -0.03926066
H        2.21056829       2.94981377      -0.40508939
H        1.64736649       1.86669048       2.27575149
H        1.49611336       3.42565741       1.78783780
H        4.93023015       0.43925778      -0.08353683
H        4.56302018       1.97492359       0.74453990
H        4.47724852       1.58674487      -2.16828142
H        5.46968830       2.57699402      -1.31529511
