14
Properties=species:S:1:pos:R:3 -1402.895975761888=T 9.930534=T 10.52514=T -9.1959=T -7.2892=T -10.354=T 0.9351=T -0.1886=T 0.395=T 9.66525=T 0.28916=T 4.3221395614=T 12.338342804=T 0.248985846=T pbc="F F F"
C        3.00888260       0.46939647       2.12022631
O        2.78029725       0.71944106       0.71617965
N        3.19994165       2.00522565       0.37786129
C        2.33355413       3.11522074      -0.07399137
C        3.60823678       3.71560407      -0.71846012
C        4.32850647       2.39030811      -0.34520688
O        5.39736716       1.86796937      -0.56999330
H        2.62775420      -0.54464097       2.29215216
H        2.45621832       1.18784347       2.74483777
H        4.08269489       0.51073280       2.35203941
H        1.87292521       3.68289870       0.74603746
H        1.57300844       2.79510687      -0.80102841
H        3.54744054       3.86545054      -1.80260800
H        4.01769236       4.60642311      -0.22916594
