17
Properties=species:S:1:pos:R:3 -1665.6023633710415=T 10.649124=T 12.01903=T -9.3078=T -7.1196=T -10.879=T 0.8586=T -0.087=T 3.019=T 10.53873=T -2.70816=T 8.4875360216=T 10.5614498436=T 0.201705947=T pbc="F F F"
C        2.26457897      -0.77877303      -0.97163595
O        1.88550297       0.41560057      -0.28428665
C        2.98638208       1.24602802      -0.02973858
C        3.44567115       2.29343834      -1.06027911
C        2.77750697       2.44655278      -2.40839840
C        2.71707864       2.69800900       0.20293296
O        3.30257783       3.44145580       1.25011740
H        1.34656618      -1.35844053      -1.13036183
H        2.97055740      -1.37860075      -0.36859361
H        2.73122986      -0.55647361      -1.94680306
H        3.78223450       0.77828884       0.56868252
H        4.52807728       2.46581222      -1.05125506
H        1.72805444       2.12464025      -2.36157653
H        3.27888568       1.84149166      -3.17886258
H        2.79594773       3.49527894      -2.74055729
H        1.67578244       3.00204132       0.07203259
H        4.25513589       3.24454020       1.27005320
