17
Properties=species:S:1:pos:R:3 -1726.432323642959=T 12.135953=T 13.89505=T -9.3835=T -7.1373=T -9.321=T 0.8288=T -0.1026=T 2.295=T 8.89363=T -1.8804=T 4.1387642674=T 10.0678243818=T 0.475988737=T pbc="F F F"
C        0.96677124       0.01480666       0.01119562
C        2.42297684       0.00736797       0.00951896
C        3.63942707      -0.01546672       0.00673223
C        5.09721320      -0.01363227      -0.00928711
C        5.72482518       1.40260641      -0.00737061
C        5.40627625       2.18710614       1.25940827
O        7.13932059       1.31153343      -0.23641505
H        0.57231353       1.04213967       0.02644104
H        0.56648386      -0.50896671       0.89245071
H        0.56510858      -0.48257620      -0.88458834
H        5.46652824      -0.53882348      -0.90504417
H        5.48213443      -0.57209720       0.86441196
H        5.33845471       1.94577035      -0.88462073
H        5.81178064       1.67110979       2.14634555
H        4.32027664       2.28245501       1.39739492
H        5.84890809       3.19071248       1.20837337
H        7.54945092       0.99020467       0.58727337
