8
Properties=species:S:1:pos:R:3 -982.2880505508962=T 8.64677=T 8.92829=T -11.1883=T -8.9912=T -10.508=T -1.3367=T -3.103=T -1.269=T 10.10145=T 1.83056=T 5.0230696152=T 10.406020994=T 0.407474412=T pbc="F F F"
C        0.93159747       0.01310671       0.00000000
C        2.28300446       0.00843694       0.00000000
C        3.03206598      -1.21571718       0.00000000
N        3.63735527      -2.21437657       0.00000000
C        3.04052772       1.22743434       0.00000000
N        3.65331398       2.22149936       0.00000000
H        0.38198244       0.95255217       0.00000000
H        0.37557267      -0.92256578       0.00000000
