8
Properties=species:S:1:pos:R:3 -986.7289715452199=T 9.407033=T 9.29031=T -11.0053=T -8.8763=T -10.386=T -1.5602=T -3.3425=T -1.53=T 9.96404=T 1.87976=T 4.8682358984=T 4.8973974056=T 0.426504525=T pbc="F F F"
N        0.93614843      -0.04588454       0.00000000
C        2.10549713      -0.00678979       0.00000000
C        3.52419897      -0.00313280       0.00000000
C        4.24684063       1.14112239       0.00000000
C        5.66554394       1.14478013       0.00000000
N        6.83489284       1.18387539       0.00000000
H        4.01684639      -0.97752082       0.00000000
H        3.75419168       2.11551004       0.00000000
