16
Properties=species:S:1:pos:R:3 -1614.7394441349484=T 11.019257=T 12.1117=T -9.7068=T -7.6355=T -10.906=T 1.1877=T -0.687=T 0.188=T 10.05252=T 0.40324=T 4.0059008698=T 8.0320238562=T 0.218641112=T pbc="F F F"
C        0.88779005      -0.05186082      -0.05037184
C        2.36933923       0.15132259      -0.23472965
C        3.22136325      -0.58235919      -1.19515655
C        2.74526815      -1.65146394      -2.14414421
N        2.79225694       0.82411267      -1.51202081
C        3.83460957       1.77738629      -1.31525721
O        3.95399726       2.78303073      -1.97456503
H        0.41130673       0.88453391       0.27177375
H        0.70318625      -0.81155580       0.72373237
H        0.40426896      -0.37314707      -0.98004984
H        2.89644871       0.50048120       0.66381689
H        4.27063791      -0.68289052      -0.88521076
H        1.70326244      -1.49185012      -2.44426388
H        2.82825532      -2.64156230      -1.67164647
H        3.36158988      -1.65622572      -3.05396532
H        4.55398932       1.52444808      -0.48658145
