15
Properties=species:S:1:pos:R:3 -1615.2794545953873=T 11.257888=T 11.50758=T -9.46=T -7.2544=T -9.025=T 1.0018=T -0.1559=T 1.128=T 8.78402=T -0.80884=T 5.7351212132=T 6.8746269448=T 0.586105592=T pbc="F F F"
O        1.13719840      -0.13083230      -0.64673941
C        2.52486035      -0.05751372      -0.21629835
C        2.77109831       1.20799457       0.55695882
C        3.24803908       1.23147897       1.81010281
C        3.63322042      -0.00492211       2.56496640
C        3.38390151      -1.27165026       1.80324778
C        2.90614189      -1.29332435       0.55039457
H        0.60376498      -0.15724464       0.16988540
H        3.07529297      -0.02551345      -1.17386989
H        2.50286273       2.13689530       0.04714644
H        3.37737920       2.18826428       2.32397816
H        4.69935205       0.05222897       2.85814893
H        3.09271359      -0.03700012       3.53046697
H        3.61667595      -2.21144508       2.31200740
H        2.73966858      -2.24315606       0.03580398
