16
Properties=species:S:1:pos:R:3 -1604.0083459078064=T 10.812663=T 11.5145=T -8.8333=T -6.8555=T -10.082=T 0.9169=T -0.2115=T 0.659=T 9.51051=T 0.02829=T 5.1535152858=T 6.3057171838=T 0.20895205=T pbc="F F F"
C        1.03426710       0.06685239      -0.02658899
C        2.53229956      -0.01299800      -0.11385761
N        3.12429598       1.06902193      -0.50172202
O        4.53284477       1.08018353      -0.59078881
C        5.22922060       0.03350101       0.11723093
C        4.66201518      -1.33559466      -0.21325999
C        3.19087024      -1.33466131       0.20182818
H        0.56448886      -0.65502623      -0.71342573
H        0.69252256       1.07711611      -0.27916967
H        0.68990297      -0.18216279       0.98986550
H        6.27555837       0.14964751      -0.19595102
H        5.15719656       0.23274863       1.20325738
H        5.22562621      -2.12468653       0.30585595
H        4.75855930      -1.51331893      -1.29533883
H        3.08391139      -1.53869092       1.28175878
H        2.62848036      -2.13267174      -0.31015404
