17
Properties=species:S:1:pos:R:3 -1587.6917811983917=T 9.875073=T 10.69865=T -9.0966=T -6.9578=T -10.122=T 0.8073=T -0.1645=T 2.97=T 9.36287=T -2.68572=T 7.9018633534=T 10.9074575738=T 0.106861026=T pbc="F F F"
C        3.78626771       0.76887912       2.74254103
N        3.62658397       0.49140927       1.31169248
C        3.57010564       1.66557487       0.41150169
C        2.64135210       2.80786519       0.83657946
C        5.01344199       2.15038816       0.18804844
O        5.86587849       1.05892536      -0.12929971
H        3.84679191      -0.18618288       3.28190231
H        2.97170809       1.36688440       3.19206753
H        4.73294312       1.30020008       2.91648232
H        2.80272527      -0.09201827       1.16328276
H        3.21898813       1.26389280      -0.55426673
H        2.97743945       3.28628853       1.76806638
H        1.61157293       2.45165236       0.98740635
H        2.61474579       3.58417270       0.05755910
H        5.37273089       2.68774931       1.09104496
H        5.04002003       2.86623777      -0.64867494
H        5.45412449       0.31015123       0.36293657
