20
Properties=species:S:1:pos:R:3 -1939.7035886541937=T 12.423402=T 13.73503=T -8.5126=T -6.3976=T -9.759=T 0.8498=T -0.0821=T 2.899=T 9.33178=T -2.53866=T 7.856062925=T 11.3220171634=T 0.221161584=T pbc="F F F"
C        1.97992074      -1.09475171      -0.62117537
C        1.73642239       0.33731165      -0.13057665
C        2.99189816       1.06777473       0.32819730
C        3.64464749       0.51629554       1.57927549
C        3.88885161       1.64761252      -0.75699221
C        3.04046223       2.57779363       0.06861073
N        3.66776532       3.56849029       0.91523486
H        1.04730018      -1.55208954      -0.98220285
H        2.37406650      -1.73865005       0.17846295
H        2.70457837      -1.10981497      -1.44943527
H        1.00751538       0.32339182       0.69999504
H        1.26467901       0.91909643      -0.94083488
H        4.47774146       1.14833084       1.91845683
H        4.04791183      -0.49470690       1.41547058
H        2.91772787       0.45614644       2.40644141
H        3.62784815       1.48622987      -1.80469089
H        4.96473140       1.65818674      -0.56371904
H        2.15260949       2.97465046      -0.43568782
H        4.62910405       3.30935345       1.14071470
H        3.16552836       3.66519877       1.80147507
