15
Properties=species:S:1:pos:R:3 -1600.6799708861192=T 10.366994=T 11.09513=T -8.2807=T -6.1942=T -8.748=T 0.9455=T 0.0525=T 1.279=T 8.31261=T -0.71207=T 5.7559012668=T 0.229021407=T pbc="F F F"
C       -1.04396582      -0.01526094      -1.03284063
C       -0.59360451       1.00383521       0.04504855
C       -0.99511902      -0.05873718       1.10004580
C       -0.62058961      -1.10964066       0.00259387
C        0.88852988      -1.18373742      -0.03356620
C        1.53338426      -0.00469158      -0.02431488
O        0.84864640       1.18664243       0.01574076
H       -2.13313041       0.03430551      -1.16307175
H       -0.53317185       0.00244509      -2.00431604
H       -1.01422247       2.01587119       0.07533025
H       -0.44042167      -0.08015511       2.04706483
H       -2.07714032      -0.01555832       1.28186533
H       -1.11991474      -2.08598166      -0.00587841
H        1.43295879      -2.12567180      -0.06523210
H        2.61279108       0.14357523      -0.04604938
