11
Properties=species:S:1:pos:R:3 -1194.896607246859=T 9.781649=T 9.35255=T -9.4065=T -7.4382=T -9.325=T -0.545=T -2.2193=T -0.489=T 8.80906=T 1.00435=T 4.4782131382=T 6.5001768262=T 0.19841337=T pbc="F F F"
O        0.59080175      -1.02581758      -0.83466811
C       -0.42685563      -1.35673876       0.03471097
N       -1.40310360      -0.57773499       0.32982405
C       -1.39212873       0.74243799      -0.06847797
C       -0.27722897       1.52575957      -0.16161336
C        1.04536081       1.02216754       0.10845075
N        1.53317289      -0.16770488      -0.05122334
H       -0.39212166      -2.37587477       0.43601570
H       -2.38215423       1.19213654      -0.17875189
H       -0.39745258       2.60537389      -0.26578932
H        1.77619996       1.68982546       0.58380252
