19
Properties=species:S:1:pos:R:3 -1826.1529583407844=T 12.950831=T 13.92328=T -8.2056=T -6.2903=T -9.135=T 0.8692=T -0.0327=T 1.096=T 8.3919=T -0.48638=T 4.8153806666=T 5.7769664882=T 0.238828333=T pbc="F F F"
C        1.86024264      -0.94859389      -0.06343848
N        3.15699122      -0.54422680       0.44220327
C        3.70290881       0.47754110      -0.10449788
N        4.97609479       0.90461444       0.19912073
C        5.39056291       2.29489819      -0.00955198
C        4.92070897       3.22630327       1.11785261
C        6.90741296       2.35520367      -0.20230307
H        1.91895319      -1.96535997      -0.48577554
H        1.45408069      -0.27664228      -0.84742297
H        1.13275624      -0.99205749       0.76324468
H        3.21788154       1.07588177      -0.90322519
H        5.38023006       0.43130865       1.00883176
H        4.90797431       2.61381303      -0.94954232
H        5.38699541       2.94325069       2.07442081
H        3.83043448       3.17176042       1.24334306
H        5.19301287       4.27080692       0.90537723
H        7.42918607       2.01804705       0.70736925
H        7.23315417       3.38422784      -0.40847393
H        7.22134867       1.71220340      -1.03516203
