13
Properties=species:S:1:pos:R:3 -1339.6184807237173=T 10.78292=T 10.75343=T -8.214=T -6.2768=T -8.839=T 0.8365=T -0.7979=T -0.175=T 8.3193=T 0.67535=T 4.633294827=T 4.7563261348=T 0.345960035=T pbc="F F F"
C        0.93778040       0.01433538      -0.00597118
N        2.38948655      -0.07560855      -0.06053203
C        3.07038772       0.99953093      -0.00778291
O        2.48487229       2.29103212       0.13340661
N        3.55892547       3.23317631       0.29032919
C        4.73939707       2.52468357       0.06449569
C        4.50519088       1.20037114      -0.05065338
H        0.51494206      -0.99849435      -0.02525201
H        0.52464539       0.57572588      -0.86287002
H        0.58651412       0.52111707       0.90995325
H        3.36682058       4.00479367      -0.35891339
H        5.67739466       3.07559472       0.06711691
H        5.22865282       0.39900209      -0.14144671
