13
Properties=species:S:1:pos:R:3 -1330.1540993901115=T 10.649063=T 11.56257=T -10.3445=T -8.1254=T -10.253=T 1.0764=T -0.5934=T -0.044=T 10.00645=T 0.66713=T 5.1673893192=T 6.2543249868=T 0.302862874=T pbc="F F F"
O        1.02295085       0.00596207       0.36154480
S        2.48972884      -0.00036834       0.24040073
O        3.35502266      -0.00577801       1.43063074
C        2.99060800      -1.36418971      -0.89118346
C        3.45286000      -0.67249473      -2.13306428
C        3.45880831       0.66949805      -2.13127871
C        3.00268132       1.36196518      -0.88756209
H        2.10706264      -2.00081605      -1.03955607
H        3.77840247      -1.93724902      -0.38203298
H        3.76577584      -1.26064541      -2.99719007
H        3.77693258       1.25714421      -2.99384411
H        3.79550918       1.92667547      -0.37689999
H        2.12480733       2.00677629      -1.03424450
