17
Properties=species:S:1:pos:R:3 -1673.120117966838=T 11.093687=T 11.99571=T -8.9709=T -6.8103=T -9.453=T 1.0083=T 0.0973=T 1.263=T 9.0083=T -0.78842=T 6.452727384=T 0.339450216=T pbc="F F F"
C        0.64976208       1.56710143      -0.61376445
C        2.10662733       1.86716782      -0.90353924
O        2.89934952       1.34153026       0.17977393
C        4.27634648       1.47395648      -0.02086391
O        4.75774822       2.82704588      -0.00880400
C        4.80149513       3.46031728       1.20917045
C        4.29845238       3.05144883       2.38168474
H        0.01869785       1.94941437      -1.42792686
H        0.33396289       2.04759351       0.32223906
H        0.48275795       0.48503650      -0.52298635
H        2.27724674       2.95329207      -0.99264554
H        2.43169022       1.39290303      -1.84996782
H        4.57755241       1.09993512      -1.01533082
H        4.76449201       0.90587820       0.78673348
H        5.33790029       4.40627403       1.10512032
H        3.71585636       2.14017245       2.49918840
H        4.45970215       3.67690276       3.25771860
