15
Properties=species:S:1:pos:R:3 -1575.50316886761=T 12.760017=T 13.46076=T -8.353=T -6.314=T -8.502=T 1.1459=T -0.4264=T 0.461=T 8.13104=T 0.07519=T 4.0812967564=T 11.2782749026=T 0.463866484=T pbc="F F F"
C        1.30097057       0.34948579      -0.67973020
C        2.54813279      -0.43936789      -0.33888826
O        3.67581070       0.45985716      -0.40615591
C        4.89503182      -0.05538869      -0.13211203
C        5.20064152      -1.33391436       0.20393351
C        6.53016769      -1.73853017       0.46596363
C        7.66273530      -2.12290448       0.70062563
H        0.42334130      -0.30975170      -0.63661259
H        1.36797246       0.77025161      -1.69181548
H        1.15093566       1.17206977       0.03208295
H        2.70979541      -1.26695544      -1.05137088
H        2.49197409      -0.86411032       0.67848725
H        5.66728610       0.71177353      -0.21302836
H        4.42333190      -2.09624509       0.28298631
H        8.66016270      -2.45625973       0.89886444
