12
Properties=species:S:1:pos:R:3 -1252.4622833072685=T 9.417382=T 9.48186=T -9.2887=T -7.2693=T -10.085=T 0.432=T -1.3529=T -0.933=T 9.57576=T 1.49332=T 3.4586638616=T 5.1551023066=T 0.517084365=T pbc="F F F"
C        3.31682684      -1.14765396      -0.18994918
O        2.55262859       0.05059248       0.04270212
C        3.23527917       1.20613949       0.07801746
C        4.56697131       1.41031580      -0.07712237
C        5.08451444       2.76895301       0.00249710
O        6.26563827       3.07872933      -0.12039659
H        2.59187945      -1.96757358      -0.18356830
H        4.05848725      -1.29232634       0.60945061
H        3.82290787      -1.09793119      -1.16537310
H        2.55615323       2.04459636       0.26011612
H        5.28201069       0.60812951      -0.25994642
H        4.30563290       3.55465910       0.19252255
