13
Properties=species:S:1:pos:R:3 -1371.5788714796247=T 14.126175=T 13.8271=T -9.0111=T -7.1358=T -8.875=T -0.3049=T -1.8828=T -0.295=T 8.40455=T 0.99868=T 3.6386667364=T 5.3916180002=T 0.661819868=T pbc="F F F"
C        0.91002263      -0.11109955      -0.03272452
C        2.35386193       0.01641791       0.00169099
C        3.56638156       0.14605609       0.03783639
C        4.97795148       0.19531596       0.05180498
N        5.62102607       1.28325206       0.35478421
N        7.01160171       1.06021892       0.29257515
C        7.67267548       2.12243830       0.58784093
H        0.42399073       0.87509890      -0.03495442
H        0.54798515      -0.66542901       0.84645417
H        0.58372323      -0.65876721      -0.92920904
H        5.53476538      -0.72015861      -0.20327952
H        8.76321061       2.05904388       0.57007255
H        7.17813404       3.06795236       0.85089814
