11
Properties=species:S:1:pos:R:3 -1210.7359576297129=T 10.335749=T 10.59564=T -9.4886=T -7.5679=T -10.382=T -0.7802=T -2.6027=T -1.465=T 9.91807=T 1.9645=T 3.2032774988=T 10.7147089382=T 0.192544092=T pbc="F F F"
N        1.00666808       0.03434655       0.09361155
C        2.34813269      -0.13827708      -0.11482919
N        3.04686465      -1.21212352      -0.26920679
C        3.08542097       1.19184813      -0.19460957
O        2.49858101       2.25171136       0.01798392
C        4.49036950       1.14617145      -0.51661212
C        5.67288782       1.22870357      -0.78365790
H        0.71251533       0.97707948       0.34443641
H        0.43636353      -0.74449431       0.40030614
H        2.46702804      -2.05961363      -0.18961416
H        6.71764839       1.27739799      -1.01677830
