18
Properties=species:S:1:pos:R:3 -1817.5911267632448=T 12.408032=T 13.28754=T -8.2511=T -6.1175=T -8.457=T 0.8994=T 0.0021=T 1.546=T 7.99638=T -0.8564=T 5.7630056646=T 0.27221499=T pbc="F F F"
C        0.97350089       0.05735047      -0.32541755
C        2.43581192      -0.02863977       0.12552072
N        2.67125129      -1.21323770       0.98696689
C        3.60394633      -0.84502926       2.06652207
C        3.53320144       0.66345188       2.09843660
C        4.14777616       1.45910148       3.20344633
C        2.88534723       1.10444482       1.01059771
H        0.70035743      -0.82457760      -0.92288869
H        0.80419431       0.95155910      -0.94513888
H        0.31169656       0.09688037       0.55130353
H        3.07224366      -0.04597171      -0.78971891
H        3.00545720      -2.01022596       0.44738676
H        4.65308578      -1.16983747       1.88701391
H        3.29650518      -1.29337997       3.03041474
H        3.99388417       2.53646351       3.05993701
H        5.23249239       1.27393687       3.26981583
H        3.72129425       1.17681384       4.17963700
H        2.70341380       2.15119710       0.76161493
