10
Properties=species:S:1:pos:R:3 -1182.9821557790328=T 9.763963=T 9.96223=T -9.7767=T -7.8513=T -9.528=T 0.6957=T -0.9935=T -0.354=T 8.93965=T 0.92876=T 4.8950540702=T 6.5286192146=T 0.298630624=T pbc="F F F"
N        0.90501964       0.01909808      -0.00705319
C        2.07482753       0.02656456      -0.00355541
C        3.48991163       0.02193014       0.00066159
C        4.33726119       1.13057428       0.00399828
N        5.59469179       0.62942635       0.00740502
N        5.64494159      -0.72627260       0.00658013
C        4.36630480      -1.10167756       0.00247300
H        4.12422154       2.19381549       0.00412669
H        6.46557492       1.15181105       0.01040228
H        4.10028538      -2.15417978       0.00092161
