19
Properties=species:S:1:pos:R:3 -1863.8225089995187=T 11.898808=T 13.63151=T -9.2914=T -7.1709=T -11.082=T 0.9821=T 0.091=T 3.201=T 10.54361=T -3.37887=T 8.9211894552=T 11.5923314406=T 0.247919506=T pbc="F F F"
C        1.21139398      -0.00676652       1.36496366
C        2.22745013       0.00000388       0.22166060
C        2.78085396       1.39119238      -0.04552392
O        3.71700641       1.31943036      -1.12835817
C        4.27988719       2.57137528      -1.42567937
C        5.47362627       3.05322280      -0.63309803
C        5.63289573       2.55811607      -2.06169467
H        0.83711647      -1.02233408       1.55419543
H        0.34284921       0.62954489       1.13571635
H        1.65653343       0.36273806       2.30161091
H        1.76479840      -0.37965690      -0.70310366
H        3.06772589      -0.67369956       0.45338798
H        3.28126549       1.79217419       0.85810190
H        1.95991071       2.09038499      -0.30597042
H        3.55470946       3.32420396      -1.76260677
H        5.83500888       2.39189935       0.15522609
H        5.57346282       4.11997662      -0.42932975
H        5.84141598       3.27896493      -2.85226275
H        6.09065960       1.57769929      -2.19410539
