14
Properties=species:S:1:pos:R:3 -1475.8801492265186=T 13.271513=T 13.472=T -7.4413=T -5.6154=T -7.677=T 0.7973=T -0.2806=T 0.381=T 7.13592=T 0.23254=T 3.978958712=T 6.1106252128=T 0.338024062=T pbc="F F F"
C        0.94224486      -0.00062787      -0.03447951
C        2.44561051       0.02828482      -0.00787418
C        3.18343004       1.18971529       0.14065742
N        2.70152241       2.48645232       0.36917510
S        4.90419598       0.86593290       0.15293443
C        4.63121694      -0.84100645      -0.06714606
C        3.29128535      -1.12027310      -0.12433586
H        0.52670890       0.72994449      -0.74911119
H        0.50436632       0.21952810       0.95336821
H        0.57811674      -0.98990557      -0.34146191
H        3.26224507       3.22048582      -0.06134852
H        1.72565407       2.58848324       0.09137396
H        5.48097166      -1.51091253      -0.14670737
H        2.90249117      -2.13026148      -0.25821451
