21
Properties=species:S:1:pos:R:3 -1954.6677176898336=T 12.659537=T 13.7938=T -8.5565=T -6.4221=T -9.974=T 0.886=T -0.0645=T 3.005=T 9.31054=T -2.67172=T 8.1173138256=T 10.8187951852=T 0.10641772=T pbc="F F F"
C        2.26118593      -0.03472219      -1.79045267
N        3.36227314       0.87737220      -1.48525383
C        3.92697560       0.65093949      -0.15424585
C        5.20503307       1.48872150       0.08116886
C        5.56426755       1.43550479       1.56958674
C        6.36416067       0.93663752      -0.76899611
N        4.87789865       2.89694751      -0.26134499
H        1.81845986       0.23466969      -2.75972460
H        1.45195203      -0.04144320      -1.02903151
H        2.64685929      -1.06289487      -1.87470963
H        3.00339894       1.83631518      -1.50034747
H        4.18208195      -0.41927153      -0.06970097
H        3.19978676       0.87894690       0.65535037
H        4.76995985       1.89484669       2.17535081
H        6.50470827       1.97498034       1.76334730
H        5.70201733       0.39692435       1.90370248
H        6.07640953       0.91601109      -1.83022737
H        6.62982746      -0.09021473      -0.47107323
H        7.26057940       1.56537272      -0.65565563
H        4.93660396       3.00736387      -1.27842178
H        5.60172073       3.51158267       0.12147910
