19
Properties=species:S:1:pos:R:3 -1806.8517236973048=T 12.592915=T 13.45229=T -8.7193=T -6.6262=T -9.499=T 1.3508=T -0.1279=T 1.351=T 8.95272=T -0.7682=T 6.6512537672=T 0.421177671=T pbc="F F F"
C        1.21984946      -0.23753759       0.31692186
N        2.63688297       0.06821918       0.52105877
C        2.98907835       1.47674448       0.26702264
C        2.53838517       2.35893622       1.45303160
N        2.70970402       3.77934617       1.12577128
C        4.47959649       1.58191694       0.09271442
C        5.09485921       2.21055821      -0.91581748
H        1.07824304      -1.32574907       0.36691715
H        0.81553583       0.12401614      -0.65198989
H        0.61046425       0.20411238       1.11862741
H        3.18952942      -0.51033386      -0.11531105
H        2.49219868       1.87884256      -0.64303605
H        3.08102266       2.01317567       2.35573359
H        1.46666056       2.18552584       1.63406897
H        3.70600373       3.98867571       1.01615085
H        2.37294084       4.35705454       1.89814189
H        5.07197233       1.10898888       0.88622106
H        4.52771892       2.68875157      -1.71820029
H        6.18344407       2.26953601      -0.96991673
