16
Properties=species:S:1:pos:R:3 -1682.3735874262388=T 12.491634=T 13.43242=T -9.8628=T -7.8682=T -9.613=T 0.2339=T -1.4572=T -0.094=T 9.09183=T 0.62483=T 5.0114769242=T 10.6638746782=T 0.460871031=T pbc="F F F"
C        0.82295098      -0.17573707      -0.10121910
C        2.35483936      -0.06472382       0.01054865
C        3.04644404      -0.83538119      -1.12931926
C        2.77383312       1.37428316      -0.00633020
C        3.42185108       1.99990162       0.99581661
C        3.80290828       3.37002262       0.94184540
N        4.12866503       4.49416308       0.92583497
H        0.32140328       0.34624573       0.72495332
H        0.51539351      -1.23112994      -0.08039670
H        0.46588566       0.26027061      -1.04680004
H        2.66858635      -0.50610628       0.97224630
H        2.76477882      -0.42196839      -2.10987149
H        2.74548017      -1.89271273      -1.11126809
H        4.14024106      -0.78637968      -1.04096493
H        2.52631036       1.94510590      -0.90881568
H        3.68668891       1.46524639       1.91264022
