10
Properties=species:S:1:pos:R:3 -1190.9257880772177=T 10.241492=T 11.5724=T -10.434=T -8.388=T -10.723=T -0.6215=T -2.5236=T -1.04=T 10.10621=T 1.61894=T 3.4896107672=T 10.4604260508=T 0.581650805=T pbc="F F F"
O        0.92795051      -0.03617436       0.00000003
C        2.14816628       0.02582929      -0.00000004
C        2.89316471       1.26197552      -0.00000002
C        3.56713189       2.27583960      -0.00000001
C        4.37456906       3.48932594       0.00000000
C        3.58744931       4.72808540       0.00000000
N        2.98835038       5.72686888       0.00000000
H        2.78387084      -0.89123260       0.00000003
H        5.03720852       3.49501617      -0.88236258
H        5.03720851       3.49501617       0.88236259
