11
Properties=species:S:1:pos:R:3 -1266.5405415261464=T 12.19848=T 11.88619=T -8.5712=T -6.7283=T -8.608=T -0.2577=T -1.8649=T -0.546=T 7.99687=T 1.02829=T 4.073931988=T 4.173802711=T 0.389613077=T pbc="F F F"
N        1.00706640       0.04884092       0.00000000
C        2.37218472      -0.02423560       0.00000000
C        3.07125944      -1.21266607       0.00000000
C        2.38774405      -2.44291487       0.00000000
N        1.76049099      -3.43637450       0.00000000
C        3.07433157       1.21684463       0.00000000
C        3.65451735       2.28416884       0.00000000
H        0.54132198       0.94560749       0.00000000
H        0.45356040      -0.80208721       0.00000000
H        4.15769387      -1.20171732       0.00000000
H        4.18137923       3.21702370       0.00000000
