11
Properties=species:S:1:pos:R:3 -1178.1143807875776=T 9.037593=T 9.46595=T -9.698=T -7.6084=T -9.875=T 0.4589=T -1.3458=T -0.284=T 9.40665=T 0.68402=T 5.1355249172=T 5.3816619244=T 0.231733704=T pbc="F F F"
C        1.06088614      -0.12572227      -0.21496904
O        2.49191016      -0.05893794      -0.20121552
C        3.02467241       1.18070420       0.00143608
C        2.37119986       2.34517590       0.19101067
C        4.46300355       1.13663216      -0.00491093
N        5.63052023       1.12062584      -0.00692676
H        0.81689849      -1.17865484      -0.38768811
H        0.64795805       0.49292750      -1.02738994
H        0.64417483       0.20213402       0.75048445
H        1.28650979       2.41155689       0.20133091
H        2.94634648       3.25496855       0.33968820
