17
Properties=species:S:1:pos:R:3 -1782.6877013870057=T 11.915723=T 12.93969=T -8.3353=T -6.207=T -7.967=T 0.9388=T 0.1044=T 1.509=T 7.45383=T -0.78936=T 5.1445139022=T 11.6076437116=T 0.26715571=T pbc="F F F"
C        1.32897804       0.26808956       0.33087533
C        2.76806354      -0.05921055       0.13488112
C        3.38704965      -1.11258946      -0.43314065
C        4.87873190      -0.77610597      -0.28651426
C        4.86672555       0.73821687      -0.69347723
C        3.95261812       0.82590626       0.57768794
C        4.90613376      -0.25648803       1.19252184
H        0.67949189      -0.52289050      -0.06841256
H        1.06248904       1.21488063      -0.16836163
H        1.08963260       0.40206586       1.39915606
H        2.96396642      -2.00281837      -0.89541822
H        5.62045406      -1.48464835      -0.67557539
H        4.41241138       0.99619203      -1.66099109
H        5.84098966       1.23476362      -0.56177775
H        3.73090475       1.77518164       1.08328883
H        5.88409360       0.14989249       1.49524160
H        4.48905604      -0.91678774       1.96662606
