17
Properties=species:S:1:pos:R:3 -1601.482156694163=T 11.906335=T 12.48829=T -8.1185=T -6.2328=T -9.446=T 0.9786=T -0.1866=T 0.63=T 8.76791=T -0.01276=T 4.7235814322=T 5.5515723388=T 0.176559803=T pbc="F F F"
C        2.00981686      -0.14008595       0.74464754
C        3.08636391       0.06131335      -0.32344645
N        3.54826700       1.44003762      -0.36334578
C        4.78031383       1.69160845      -0.08841048
N        5.19770838       2.99718547      -0.00614359
C        6.52289780       3.39647688      -0.43973976
O        4.21223357       3.91221536      -0.45642346
H        1.63379375      -1.17331712       0.72434342
H        1.16452897       0.54097833       0.57269839
H        2.41078743       0.06385978       1.74784643
H        2.66238093      -0.18450370      -1.31238352
H        3.92449946      -0.64370068      -0.15005655
H        5.56035342       0.94783389       0.14129206
H        7.24251566       2.66388464      -0.05187722
H        6.75774417       4.38010513      -0.01327250
H        6.59932914       3.44907211      -1.53921924
H        3.45131570       3.27773644      -0.61107929
