13
Properties=species:S:1:pos:R:3 -1306.507924727144=T 9.205121=T 9.86929=T -9.4909=T -7.356=T -10.89=T 0.8934=T -1.0304=T -0.111=T 10.012=T 0.72767=T 3.6787762074=T 13.7315486888=T 0.255658115=T pbc="F F F"
C        1.07214184       0.06873266      -0.16206677
N        2.52135874       0.01617282       0.02904893
C        3.26619140      -0.77578639      -0.92806738
C        3.31087358       0.73333978      -0.99136942
C        4.51787165       1.44754290      -0.49905898
O        5.05205596       2.37336582      -1.08422935
H        0.68623913       1.00155557       0.27103985
H        0.61647099      -0.77668288       0.37231895
H        0.76778532       0.01793775      -1.22612897
H        2.72535092      -1.26017737      -1.74900359
H        4.12220371      -1.32886683      -0.53292260
H        2.78836896       1.20356769      -1.83167016
H        4.91479781       1.05064847       0.47082950
