17
Properties=species:S:1:pos:R:3 -1688.2078304541735=T 10.444528=T 11.61525=T -9.5996=T -7.411=T -11.292=T 0.7964=T -0.2175=T 2.585=T 10.95487=T -2.2964=T 9.0401540222=T 0.063209277=T pbc="F F F"
C        1.02372323      -0.02982948      -0.04768856
C        2.53687382      -0.03108299       0.05046589
O        3.14643787      -0.14955314      -1.25265956
C        3.26212837       1.04229151       0.91430036
C        4.28641998      -0.03899500       1.35656336
C        3.25455501      -1.11656317       0.91974067
O        3.67379910      -2.30207133       0.28541899
H        0.56666320       0.00875084       0.95154264
H        0.67622011      -0.93978129      -0.55723020
H        0.66105784       0.84358038      -0.61405178
H        2.88817228       0.62545286      -1.77971123
H        2.62806137       1.38890931       1.74319161
H        3.65071547       1.91557552       0.37212778
H        5.16481229      -0.05466248       0.69757455
H        4.61544716      -0.04609792       2.40358373
H        2.61345330      -1.41153467       1.76518450
H        3.96526961      -2.03274894      -0.60811275
