15
Properties=species:S:1:pos:R:3 -1600.85080189554=T 11.698656=T 11.98794=T -8.8116=T -6.7543=T -8.704=T 0.1363=T -1.395=T 0.226=T 8.11896=T 0.29214=T 5.0796196298=T 6.9509403278=T 0.419751709=T pbc="F F F"
C        1.05192001       0.01334067       0.30849815
C        2.36685452      -0.01869359       0.04142868
C        3.26384677       1.18937227      -0.15091392
O        4.41701955       0.70645009      -0.85378131
C        4.62422431      -0.64286572      -0.41448387
C        3.24042814      -1.19690724      -0.13343954
C        2.91113234      -2.49665980      -0.07418785
H        0.47096829      -0.90041658       0.44230979
H        0.51409870       0.95785378       0.40135346
H        3.55826804       1.61045267       0.83294367
H        2.80751980       1.98756119      -0.75204283
H        5.16319063      -1.18034384      -1.20655981
H        5.24055504      -0.65967705       0.50848265
H        1.89130950      -2.82129624       0.13821630
H        3.65414437      -3.27855062      -0.23712357
