21
Properties=species:S:1:pos:R:3 -2066.659959291746=T 13.339658=T 14.4868=T -9.4996=T -7.3272=T -9.43=T 0.9544=T 0.0409=T 1.389=T 8.86007=T -0.79665=T 6.6211871622=T 0.442879604=T pbc="F F F"
C        3.30060947      -1.36305404       0.55976231
C        2.58933926      -0.08923588       1.02945553
C        2.40958396      -0.10068337       2.55393027
C        3.29901330       1.18967036       0.48548283
C        2.44218953       2.45243982       0.68749298
C        4.67326048       1.39581348       1.06690178
C        5.82256089       1.32488273       0.38482809
H        3.37806368      -1.39761529      -0.53774953
H        2.75490556      -2.26044831       0.88747132
H        4.32127488      -1.41972387       0.96837331
H        1.58078737      -0.08053626       0.57584892
H        3.37863620      -0.16527879       3.07230799
H        1.81807312      -0.97632491       2.85959069
H        1.88524271       0.79343372       2.92037670
H        3.41871168       1.03548609      -0.60240890
H        2.34201731       2.70964882       1.75263532
H        1.43085427       2.30932940       0.27758105
H        2.89820366       3.31533750       0.18231650
H        4.71103362       1.64483998       2.13450304
H        5.83731022       1.08951586      -0.68294580
H        6.78647884       1.50126296       0.86521559
