16
Properties=species:S:1:pos:R:3 -1595.8002769170157=T 9.996245=T 11.26771=T -9.2753=T -7.2068=T -10.635=T 1.3339=T -0.5043=T 0.254=T 9.65592=T 0.46047=T 3.736876047=T 11.3156070872=T 0.194391605=T pbc="F F F"
C        1.26389571      -0.36970940       0.15829791
C        2.78746936      -0.38525218       0.03095296
C        3.39431474       1.01550565       0.04078632
C        4.91249380       1.04965177      -0.08443204
C        5.55456781       2.42505741      -0.10707281
O        5.58121983       0.02859434      -0.16270251
H        0.85446804      -1.38988648       0.14825669
H        0.79552344       0.18360863      -0.67061390
H        0.94252745       0.10723177       1.09737705
H        3.08681352      -0.89732816      -0.89653375
H        3.23257862      -0.97311279       0.84828361
H        3.12357444       1.55696967       0.96673565
H        2.97467059       1.63470766      -0.77391309
H        5.15985443       3.01867590      -0.94565076
H        6.64159198       2.32874829      -0.20208939
H        5.31028625       2.97731792       0.81317807
