16
Properties=species:S:1:pos:R:3 -1559.519323852574=T 10.356063=T 11.48228=T -9.1848=T -6.9981=T -10.503=T 1.0844=T -0.9409=T 0.01=T 10.09511=T 0.59837=T 3.6757137532=T 8.2215984502=T 0.082053224=T pbc="F F F"
O        2.94973106      -0.86363559      -1.13373174
C        2.32676195      -0.19379252      -0.02344425
C        2.72557890       1.26788672      -0.09330287
N        4.17408550       1.41161406       0.06647463
C        4.63602557       2.78198410      -0.09853888
C        4.42335252       3.59569962       1.16878539
O        4.28007208       4.80279527       1.19946378
H        2.82141401      -1.81980914      -1.02350190
H        2.67051964      -0.62245288       0.93454640
H        1.22648329      -0.27739480      -0.07919206
H        2.21432409       1.80892512       0.72072491
H        2.35768357       1.69712146      -1.05046132
H        4.62851697       0.79817869      -0.61246803
H        4.19010339       3.33490452      -0.95109255
H        5.72899004       2.76959969      -0.25910137
H        4.43047744       2.97589568       2.10434986
