8
Properties=species:S:1:pos:R:3 -874.1218571030452=T 8.786918=T 8.57619=T -9.4023=T -7.5963=T -9.6=T 0.5934=T -1.1743=T -0.442=T 8.96465=T 0.94161=T 4.8294902734=T 12.865531276=T 0.473751995=T pbc="F F F"
S       -0.40012816      -1.18059421       0.00484930
C       -1.30698222       0.28128500      -0.02351004
C       -0.43203554       1.34593706      -0.04066329
C        0.91127787       0.88229978      -0.02928398
N        1.10324010      -0.43329744      -0.00518249
H       -2.39377759       0.29057995      -0.02611653
H       -0.72883099       2.39286693      -0.06006943
H        1.79190654       1.52761294      -0.03881354
