14
Properties=species:S:1:pos:R:3 -1445.7940920953417=T 9.301766=T 10.17713=T -9.5993=T -7.4936=T -10.878=T 0.6038=T -0.4407=T 0.2=T 10.1639=T 0.43032=T 4.3022150112=T 13.1112467308=T 0.133828876=T pbc="F F F"
O        1.26521137       0.10201475       0.88799558
C        2.02338983       0.20355304      -0.22745407
O        1.80422638      -0.40887966      -1.25265602
C        3.16228610       1.20992983      -0.07019107
C        2.86845145       2.65712559      -0.56860365
C        3.37012073       3.13930420       0.81394805
N        3.28009667       1.73450360       1.32358330
H        1.71177299       0.73289158       1.52734878
H        4.08256451       0.78484058      -0.49884839
H        1.80022087       2.83856821      -0.73856516
H        3.43616164       2.98558695      -1.44478872
H        4.40163970       3.52370844       0.77826631
H        2.73904873       3.85164471       1.36396484
H        4.09692902       1.40765818       1.84492022
