15
Properties=species:S:1:pos:R:3 -1476.279198908989=T 11.22663=T 11.7114=T -8.6042=T -6.6222=T -9.369=T 1.249=T -0.82=T 0.=T 8.80031=T 0.62593=T 3.6731348444=T 5.4156588856=T 0.384973318=T pbc="F F F"
C        1.37244133       1.85725310      -0.27734177
N        2.55387571       2.28608090      -0.55222443
N        3.54623098       2.11356529       0.36278193
C        4.90112839       2.10640246      -0.19078938
C        5.25321716       3.46068178      -0.79540039
C        6.65863158       3.55551152      -1.31970520
O        7.49027178       2.66597878      -1.26217572
H        0.58040349       2.05700792      -0.99892800
H        1.12636597       1.31314113       0.64982995
H        3.37626850       1.37018266       1.05226759
H        5.03559486       1.31503322      -0.94941702
H        5.58653908       1.87864578       0.63756398
H        5.11434245       4.27102792      -0.05614429
H        4.56013535       3.71187018      -1.61727173
H        6.91399337       4.54306737      -1.78589552
