16
Properties=species:S:1:pos:R:3 -1639.57147853484=T 12.056072=T 12.19097=T -8.2336=T -6.3376=T -8.815=T 0.6733=T -0.8934=T -0.481=T 8.31593=T 1.16921=T 3.5206816588=T 4.3999655736=T 0.383442628=T pbc="F F F"
C        3.15568956      -1.22652170       0.35264643
C        2.42873829       0.10957781       0.20544595
O        1.19144340       0.12369430       0.19095161
C        3.20360368       1.35378946       0.08561682
C        2.45137597       2.65220252      -0.03961284
C        4.56879159       1.33053373       0.09211396
N        5.37020534       2.44133227       0.03665005
H        3.75769084      -1.25734089       1.27269197
H        3.82557970      -1.42398060      -0.49689777
H        2.39952053      -2.01762323       0.39856927
H        1.37478035       2.44185086      -0.03305566
H        2.69021910       3.18075480      -0.97851728
H        2.67194578       3.33667375       0.79612796
H        5.11632970       0.39163475       0.18701193
H        4.95380190       3.32981205      -0.22475829
H        6.35031428       2.32959013      -0.19288411
