17
Properties=species:S:1:pos:R:3 -1686.4919983391894=T 10.272006=T 11.32475=T -9.1=T -6.9901=T -11.095=T 0.9825=T 0.0633=T 2.892=T 10.69217=T -2.618=T 8.872624139=T 10.2279523008=T 0.095282468=T pbc="F F F"
C        0.95229633      -0.00158146       0.07022490
C        2.47354128       0.00289271      -0.08086870
C        3.03255884      -1.31099801      -0.63475041
O        2.68408071      -1.49415709      -2.01142266
C        3.21257821      -0.40849306      -2.78332562
C        2.66374491       0.91932197      -2.28497585
O        2.94462922       1.10577450      -0.89186768
H        0.60020090       0.99223423       0.37791678
H        0.65563093      -0.72612025       0.84278158
H        0.44706896      -0.28557139      -0.86265940
H        2.93445178       0.18534820       0.90385745
H        2.62211481      -2.17474891      -0.09172154
H        4.13509021      -1.31155898      -0.52721494
H        4.31897514      -0.40883676      -2.71745999
H        2.91646655      -0.59046970      -3.82675291
H        3.14672977       1.75982988      -2.80520766
H        1.57590147       0.97108413      -2.47736335
