19
Properties=species:S:1:pos:R:3 -1809.3348068777248=T 12.841613=T 13.6643=T -8.5994=T -6.5139=T -9.237=T 1.0924=T -0.1678=T 0.832=T 8.80708=T -0.23786=T 4.9504014206=T 5.6896183512=T 0.17428407=T pbc="F F F"
C        1.45297733      -1.06397719      -0.01530452
C        2.94284033      -0.71793406      -0.02931571
C        3.20999073       0.78213503       0.12473887
C        4.70444220       1.15528891       0.10650256
C        5.46756283       0.63836381       1.28769856
N        6.49622908      -0.11848744       1.14524331
N        7.20580632      -0.46961553       2.27505288
H        1.28890582      -2.14477266      -0.13365499
H        0.91706106      -0.55433750      -0.83117482
H        0.98108660      -0.75681929       0.93106258
H        3.39785738      -1.06839866      -0.97185091
H        3.46084429      -1.26649131       0.77513655
H        2.75384166       1.14182803       1.06510953
H        2.70031470       1.32892637      -0.68682388
H        4.78968167       2.25680160       0.08387482
H        5.18667412       0.77658380      -0.80796701
H        5.11849657       0.94360343       2.29534261
H        7.66736932      -1.36506682       2.12689608
H        6.65911801      -0.46819053       3.14651349
