14
Properties=species:S:1:pos:R:3 -1469.3199280324932=T 11.201793=T 11.78432=T -9.1166=T -7.2498=T -10.129=T 0.6517=T -1.0688=T -0.205=T 9.41753=T 0.78329=T 3.7316934322=T 10.8791143742=T 0.354148719=T pbc="F F F"
C        0.95860802      -0.07195005      -0.20210316
N        2.39529752       0.03280299      -0.00941572
C        3.15013702      -1.21051802       0.01614950
C        3.06931895       1.22279525       0.14589005
O        4.29087406       1.30732067       0.30790262
C        2.25547660       2.43217772       0.11151794
C        1.70873103       3.51726500       0.10483996
H        0.51137953       0.92759974      -0.20245926
H        0.50376418      -0.66569584       0.60741103
H        0.73360616      -0.56340638      -1.16261440
H        2.79509725      -1.85690513       0.83449302
H        4.20697387      -0.96954501       0.17022213
H        3.02945297      -1.75170359      -0.93579895
H        1.22727284       4.47433265       0.09897525
