13
Properties=species:S:1:pos:R:3 -1390.7859441273201=T 10.127229=T 10.84969=T -7.8792=T -5.9308=T -8.092=T 1.0677=T -0.0407=T 0.353=T 7.54188=T 0.28476=T 4.1253117864=T 6.7634363=T 0.274365841=T pbc="F F F"
C        1.02185404      -0.00302686       0.01311731
C        2.50369091       0.08614854      -0.01643662
N        3.24788808       1.16086119      -0.06882648
C        4.55717961       0.69339268      -0.07611940
N        5.61414735       1.59539041      -0.20031025
C        4.54632722      -0.67404776      -0.02529196
O        3.21449047      -1.07656484       0.01419098
H        0.60592601       1.00945911       0.00734826
H        0.67432934      -0.52959982       0.91354653
H        0.64123791      -0.55080501      -0.86121172
H        6.47728951       1.28851817       0.24175940
H        5.34710801       2.52426548       0.12172270
H        5.29294153      -1.45729130      -0.01895874
