17
Properties=species:S:1:pos:R:3 -1802.9730070044302=T 11.759678=T 12.53496=T -8.5993=T -6.4767=T -8.701=T 1.0107=T -0.0133=T 1.4=T 8.21929=T -0.75936=T 5.896712167=T 0.288838116=T pbc="F F F"
C        0.87097781      -1.21311356       0.87615940
C        1.14551040      -0.41655208      -0.36991128
C        0.98022281       1.09078127      -0.43375821
C       -0.23291416       1.61787550       0.35769289
C       -1.46821178       0.78418443       0.13786998
C       -1.40349941      -0.52525090      -0.16207137
C       -0.11980483      -1.25635299      -0.28739986
H        1.47460041      -2.10260278       1.06123531
H        0.54000097      -0.69141633       1.77542457
H        1.92935056      -0.81348202      -1.02040624
H        1.89720759       1.59104725      -0.08311602
H        0.85340366       1.36898486      -1.49383105
H        0.00976579       1.64802776       1.43539500
H       -0.42560289       2.66523021       0.07589006
H       -2.44206607       1.26906447       0.24194358
H       -2.32449463      -1.09508479      -0.31275817
H       -0.14779624      -2.18591030      -0.85949860
