16
Properties=species:S:1:pos:R:3 -1629.550098686486=T 10.593638=T 11.93744=T -10.6958=T -8.2703=T -11.676=T 0.8442=T -0.2162=T 1.519=T 11.22376=T -1.10362=T 5.3608322764=T 11.793300348=T 0.184475994=T pbc="F F F"
C        1.32584862      -0.15129446       0.96827893
C        2.49760531       0.01101841      -0.01598736
C        2.12410051      -0.43978802      -1.44681432
C        3.29386215      -0.43128793      -2.41835102
O        4.26508437      -1.37793696      -1.94523181
C        2.97951113       1.39614874      -0.02373971
N        3.35068943       2.50249488      -0.04590250
H        1.61228776       0.15876074       1.98116792
H        1.01804672      -1.20510543       1.00146950
H        0.46367347       0.45336060       0.65457046
H        3.34332856      -0.61302591       0.31833644
H        1.32289927       0.20522627      -1.84019708
H        1.72256314      -1.46330856      -1.38072086
H        3.72815043       0.58301209      -2.47897515
H        2.93233101      -0.70976976      -3.42508858
H        5.07383813      -1.27149470      -2.47223485
