12
Properties=species:S:1:pos:R:3 -1306.6821214485954=T 10.185139=T 10.73464=T -10.0053=T -7.9519=T -10.643=T -0.1441=T -1.9412=T -0.501=T 9.78633=T 1.06384=T 3.690009339=T 6.8245366008=T 0.182264033=T pbc="F F F"
O        1.75889940      -0.59056978      -0.79538142
C        2.16163381       0.35181540      -0.13954110
C        1.71770574       0.55044157       1.23392125
C        1.34102200       0.70716755       2.37941856
N        3.08612474       1.29307828      -0.70412114
C        4.08049556       1.89180995       0.23615145
C        2.95240530       2.70935635      -0.24826519
H        0.99440161       0.82387197       3.38697067
H        5.07260387       1.99257422      -0.20615213
H        4.04943557       1.56699331       1.27922861
H        2.15824699       2.93748208       0.46711706
H        3.09143540       3.42825909      -1.05690662
