13
Properties=species:S:1:pos:R:3 -1459.590416092389=T 12.178971=T 13.24618=T -9.998=T -7.7415=T -9.509=T 1.4125=T -0.2109=T 1.03=T 9.09005=T -0.44948=T 4.313100982=T 6.5915793054=T 0.253317129=T pbc="F F F"
C        1.69439188      -0.58108977       1.24149776
C        2.47524230      -0.15532917       0.24822922
C        3.11949399       1.22880650       0.16296018
C        2.82333316       2.09512864       1.30839839
C        2.56252270       2.81215842       2.25019968
C        4.56863765       1.10693367      -0.06270665
C        5.75547502       0.97959725      -0.27419921
H        1.26502238      -1.58291988       1.22052288
H        1.46471972       0.05580938       2.09765199
H        2.71003321      -0.79935192      -0.60312062
H        2.69674134       1.72159006      -0.73669823
H        2.34447719       3.45482002       3.07859417
H        6.80670946       0.87510681      -0.44928956
