16
Properties=species:S:1:pos:R:3 -1618.4197775934285=T 10.989037=T 11.6861=T -8.5=T -6.3162=T -8.735=T 1.0428=T -0.0337=T 1.464=T 8.36413=T -0.84573=T 5.9275598838=T 0.247730756=T pbc="F F F"
O        2.36875381      -0.30649895      -1.52401878
C        2.33988901       0.11858013      -0.15367005
C        3.29310246       1.31221658      -0.00730442
N        3.36597462       1.73166621       1.41186282
C        3.21832563       3.20251856       1.49865765
C        2.76599541       3.59475152       0.12030456
C        2.81617032       2.55260870      -0.71635505
H        1.73184831      -1.03232693      -1.62708411
H        2.67468410      -0.68803377       0.52455221
H        1.32756806       0.43369186       0.15759631
H        4.27540078       0.99280120      -0.41516729
H        4.23268193       1.41963764       1.84466258
H        4.16449676       3.71582529       1.76498188
H        2.47964053       3.48343698       2.27226704
H        2.44465482       4.60537928      -0.13219464
H        2.54876344       2.55126570      -1.77203073
