17
Properties=species:S:1:pos:R:3 -1770.7390065935065=T 13.148372=T 13.91921=T -8.9699=T -6.9375=T -8.755=T 0.6874=T -0.8812=T 0.604=T 8.22286=T -0.04455=T 4.058991675=T 6.0389489062=T 0.424982298=T pbc="F F F"
C        1.16787157      -0.18785660       0.33680207
C        2.63555079      -0.05052449      -0.10856060
C        2.89183498      -0.82045348      -1.40517264
C        3.03538249       1.42328832      -0.17930663
C        3.38497443       2.06559200      -1.31379653
C        3.01877228       2.12531972       1.06483653
C        3.00403588       2.67660492       2.15031553
H        0.98539031       0.34301431       1.28077936
H        0.90856997      -1.24662250       0.48120576
H        0.49378743       0.22985424      -0.42654449
H        3.26322933      -0.49580659       0.68488843
H        2.25895415      -0.44974239      -2.22621750
H        2.65126483      -1.88327469      -1.26051990
H        3.94246291      -0.75152114      -1.72118648
H        3.41569803       1.55087512      -2.27330596
H        3.64994294       3.12232351      -1.29790290
H        3.00262768       3.17451973       3.09815595
