18
Properties=species:S:1:pos:R:3 -1810.6283478816413=T 12.233005=T 13.0003=T -8.6099=T -6.5008=T -9.006=T 0.9827=T 0.0158=T 1.453=T 8.50395=T -0.80809=T 6.1673612064=T 0.314262586=T pbc="F F F"
C        2.46108003      -0.44531166      -1.65606863
N        2.35614998       0.08963585      -0.29905523
C        3.22475503       1.25429878      -0.06471121
C        3.32750764       1.59596185       1.44087019
C        3.37576268       3.14093345       1.52369160
C        2.78486961       3.56522818       0.20172773
C        2.69234362       2.54320164      -0.65901655
H        1.88659720      -1.37928836      -1.72645857
H        3.50371317      -0.64896024      -1.98290170
H        2.02058851       0.26300722      -2.37384226
H        2.62579317      -0.64233480       0.36327008
H        4.24341379       1.06884430      -0.48639043
H        4.18474071       1.11125115       1.92845065
H        2.40556688       1.23311308       1.92242649
H        4.41162811       3.51256652       1.62273084
H        2.82094791       3.53797944       2.38842590
H        2.50564520       4.59719049      -0.01909465
H        2.33129674       2.61801310      -1.68553425
