12
Properties=species:S:1:pos:R:3 -1269.938365884081=T 10.571648=T 10.51435=T -10.1514=T -8.2077=T -10.61=T -0.043=T -1.8109=T -0.608=T 10.02066=T 1.18621=T 4.1639210268=T 5.7748835234=T 0.499507642=T pbc="F F F"
C        0.98743043      -1.83185420       1.43287595
C        1.93920456      -1.87859436       0.49262159
C        3.13343626      -1.00141503       0.58613097
O        3.38400078      -0.19553602       1.44953145
O        3.94249747      -1.27231675      -0.52481094
N        5.13178882      -0.47828575      -0.54269460
C        5.81785627      -0.78227969      -1.57698161
H        0.10489571      -2.46888000       1.37958569
H        1.08317237      -1.14654422       2.27704604
H        1.87687978      -2.55111911      -0.36444001
H        6.75401360      -0.23428772      -1.69544080
H        5.51659397      -1.53556716      -2.31417374
