16
Properties=species:S:1:pos:R:3 -1542.1163240592725=T 10.588406=T 11.31007=T -9.2487=T -7.2905=T -10.505=T 0.8242=T -0.1464=T 0.209=T 9.76335=T 0.37534=T 4.2767854826=T 6.0266742922=T 0.185248374=T pbc="F F F"
C        0.86798818       0.59443687      -0.86261854
C        1.82580504      -0.34800429      -0.16385122
O        3.08723858       0.35849142      -0.02196793
N        4.05917659      -0.48682256       0.55885890
C        4.95712087      -1.13135548      -0.38154161
C        4.42097207      -0.17207205       1.84757633
O        5.39249110      -0.64009457       2.42993673
H       -0.10688403       0.10377397      -0.98611877
H        1.24422810       0.87201796      -1.85646281
H        0.72096468       1.51117263      -0.27575923
H        1.98611228      -1.26757141      -0.75232039
H        1.46065370      -0.63448022       0.83678741
H        4.42307285      -1.88404779      -0.97719980
H        5.73657828      -1.62038004       0.21481807
H        5.41464000      -0.38701975      -1.05087103
H        3.69220170       0.53702531       2.29827390
