15
Properties=species:S:1:pos:R:3 -1602.117117700706=T 11.901395=T 12.35333=T -9.6658=T -7.493=T -9.539=T -0.2094=T -1.9789=T -0.941=T 9.81492=T 1.52521=T 3.412962622=T 6.5151419364=T 0.3893571=T pbc="F F F"
C        1.35405408      -0.63983855       0.82904795
C        2.24031563      -0.20343183      -0.07146572
C        3.15655910       0.97678701       0.14026210
C        4.61666955       0.59757993       0.04920248
C        5.44215313       0.48345955       1.10672005
C        5.18909679       0.33291174      -1.29248772
O        4.56630892       0.42155184      -2.34093071
H        0.70785422      -1.49356989       0.62051405
H        1.23889816      -0.15494605       1.80211266
H        2.33009181      -0.70691412      -1.03875185
H        2.95202636       1.44187252       1.11562473
H        2.95371760       1.72363167      -0.64677309
H        5.10774361       0.66780361       2.12895554
H        6.48799966       0.19808624       0.96743238
H        6.27101137       0.04159633      -1.28546287
