15
Properties=species:S:1:pos:R:3 -1484.472157693764=T 10.578848=T 11.25266=T -9.0644=T -6.9835=T -9.579=T 1.6498=T 0.014=T 1.403=T 9.04634=T -0.83759=T 6.7453095468=T 0.433468198=T pbc="F F F"
C        1.61846748       0.37196421      -1.69416200
C        2.36776145      -0.20403941      -0.74838374
C        2.95111770       0.51682554       0.43185971
N        4.39141869       0.24924833       0.55160141
C        5.25923956       1.17082776      -0.19010411
C        5.15140960       1.25829269       1.29649595
H        1.20207544      -0.20316668      -2.52244044
H        1.38810521       1.44040789      -1.66691324
H        2.59191847      -1.27433971      -0.80198979
H        2.48061739       0.14609259       1.36015933
H        2.72670874       1.60318343       0.35919362
H        4.77849182       1.96440892      -0.77205363
H        6.13877115       0.72078694      -0.65505616
H        5.95034431       0.87256428       1.93376177
H        4.60187298       2.11390321       1.70418133
