18
Properties=species:S:1:pos:R:3 -1743.0358391554616=T 11.179548=T 12.60952=T -9.3418=T -7.0098=T -10.64=T 0.8686=T -0.0818=T 2.632=T 10.01362=T -2.31264=T 8.6959936834=T 10.804450005=T 0.1507537=T pbc="F F F"
C        0.84650063       0.14063219      -0.46158758
C        2.25245400      -0.09171707       0.05094546
C        2.46096207      -0.09093589       1.55592793
C        2.21907596       1.27033060       2.21624448
N        2.57067286       1.20455984       3.64370171
C        3.21170552      -0.82273378      -0.80043803
O        3.28793104       0.61221968      -0.69350669
H        0.82791464       0.11302552      -1.55867100
H        0.46412200       1.11958316      -0.13915346
H        0.16248508      -0.63233596      -0.07958346
H        3.49250162      -0.39940665       1.78209317
H        1.79162394      -0.84657081       2.00623935
H        1.17766670       1.60056648       2.02906080
H        2.88161812       2.00944416       1.73922922
H        1.90104586       0.60952008       4.13956488
H        2.48871724       2.13283822       4.06433368
H        2.88693733      -1.20048972      -1.77713233
H        4.03919538      -1.36999006      -0.33445813
