19
Properties=species:S:1:pos:R:3 -1813.2530994004246=T 11.982223=T 13.31696=T -9.0735=T -6.8415=T -10.459=T 0.8905=T -0.0351=T 2.874=T 10.04367=T -2.55286=T 8.390380592=T 11.5439521034=T 0.186930392=T pbc="F F F"
C        0.88363061      -0.01264069      -0.22602164
C        2.36907602       0.10797313       0.05895614
C        2.72721453      -0.03308562       1.52590182
N        3.31252374      -0.54785262      -0.88471104
C        3.18220304       0.93633861      -0.88407680
C        4.42656850       1.71272223      -0.52604593
N        5.31810690       1.75099235      -1.69747732
H        0.66541070       0.13572516      -1.29373607
H        0.31047332       0.73692220       0.34141077
H        0.51142625      -1.00691377       0.06823773
H        3.81263293      -0.05381977       1.67586477
H        2.31762901      -0.97514445       1.92269265
H        2.30360857       0.79370493       2.11673394
H        2.78932536      -0.93719616      -1.67650751
H        2.63094895       1.37648502      -1.72357583
H        4.89001123       1.27157497       0.37533686
H        4.14276104       2.74916589      -0.27737900
H        5.62253206       0.79350717      -1.89814170
H        6.16455725       2.27876142      -1.47190185
