18
Properties=species:S:1:pos:R:3 -1729.9891016670986=T 12.25603=T 13.10827=T -8.8206=T -6.9317=T -10.309=T 1.7161=T -0.0553=T 0.598=T 9.80904=T 0.01671=T 5.4033470758=T 6.4009384318=T 0.355355941=T pbc="F F F"
C        1.07596892       1.07679466      -0.55999819
C        2.50610706       0.84336831      -0.20348725
N        3.33757872       1.82123868      -0.22609041
O        4.63729150       1.39803722       0.11612854
C        5.52473319       2.55023516       0.15295648
C        5.24177138       3.41187220       1.37765917
C        6.93305874       1.97503074       0.13351774
H        0.77856285       0.44770900      -1.41375117
H        0.91040704       2.12966026      -0.81946447
H        0.41508230       0.80736777       0.27903243
H        2.83942211      -0.16710670       0.07474323
H        5.33954891       3.13405819      -0.76532632
H        5.41858869       2.83906057       2.30038053
H        4.19853785       3.75343670       1.36857347
H        5.89601685       4.29578766       1.38501957
H        7.10667419       1.34638995       1.01921689
H        7.67097438       2.78878128       0.14057708
H        7.09473532       1.36429836      -0.76467732
