17
Properties=species:S:1:pos:R:3 -1775.1067532164186=T 14.246906=T 15.73064=T -8.7522=T -6.6528=T -8.49=T 0.7982=T -0.7874=T 0.616=T 8.0464=T -0.06328=T 3.8095194444=T 11.5616573042=T 0.77860736=T pbc="F F F"
C        0.89980024      -0.02571393       0.01782903
C        2.42792902      -0.01970607       0.01797046
C        3.00439574       1.41072885       0.00037006
C        4.45943663       1.45962918       0.00014568
C        5.67957222       1.49994845       0.00014971
C        7.09747611       1.49589876       0.00002208
C        7.87567653       2.59650944      -0.00048920
H        0.50664795      -1.05182547       0.03045562
H        0.49752129       0.47422449      -0.87671611
H        0.49729999       0.49614296       0.89966874
H        2.81174893      -0.56696113      -0.85712499
H        2.81149390      -0.54516227       0.90643341
H        2.62310986       1.96965309       0.87403675
H        2.62363694       1.94770446      -0.88720262
H        7.57404797       0.50902909      -0.00015937
H        7.44338779       3.59783799      -0.00032417
H        8.96200889       2.50968210      -0.00049507
