15
Properties=species:S:1:pos:R:3 -1527.3175891715077=T 10.893719=T 11.95444=T -8.8402=T -6.6851=T -9.516=T 1.0218=T 0.0127=T 1.164=T 9.05784=T -0.66397=T 6.4149364512=T 0.454562687=T pbc="F F F"
O        0.56331253       0.72892978      -0.35112088
C        1.65006686      -0.05306245       0.08499482
C        2.16095981      -1.08711619      -0.88005527
C        3.00033127       0.13031645      -0.54273995
O        4.11870528      -0.00118946       0.31329359
C        5.23038742      -0.55664485      -0.27553498
C        6.40619005      -0.63515873       0.35677932
H        0.62160884       1.59371696       0.09374209
H        1.64989582      -0.33262527       1.14454810
H        1.70514186      -1.11454239      -1.87016840
H        2.46479894      -2.04826246      -0.46546213
H        3.09682024       0.90689392      -1.30877171
H        5.07502184      -0.93840963      -1.28977396
H        6.54009147      -0.25061276       1.36771717
H        7.25146775      -1.09824290      -0.14665783
