14
Properties=species:S:1:pos:R:3 -1484.6423420844771=T 10.318554=T 11.1043=T -9.6497=T -7.6392=T -9.612=T 1.1327=T -0.5382=T -0.102=T 8.98709=T 0.63272=T 5.0699487218=T 6.84464713=T 0.331236748=T pbc="F F F"
C        0.94739484      -0.06716135      -0.11240133
C        2.46464814       0.01289404       0.10997173
C        2.99423913       1.41528541       0.05470075
N        3.49716667       1.97269643       1.14396533
O        3.88707443       3.27646090       0.76255506
C        3.59775747       3.44208274      -0.54705987
C        3.03234766       2.31280929      -1.05820002
H        0.60717647      -1.11115256      -0.07045642
H        0.65970448       0.34142484      -1.09194878
H        0.40924685       0.49957235       0.66014922
H        2.98542298      -0.59171971      -0.65002555
H        2.72858649      -0.40775264       1.09070315
H        3.85349786       4.41009070      -0.96840538
H        2.69520655       2.13963958      -2.07442790
