11
Properties=species:S:1:pos:R:3 -1245.7096143817305=T 11.708788=T 12.45051=T -10.0095=T -7.9703=T -9.845=T 0.2135=T -1.5803=T 0.068=T 9.40229=T 0.26713=T 3.5740452332=T 7.7113960602=T 1.123271673=T pbc="F F F"
N        0.94676687       0.01222819      -0.04919823
C        2.12178478       0.00602592      -0.04400186
C        3.48427248      -0.00313768      -0.03530642
C        4.70559242      -0.00470251      -0.03030372
C        6.13498213      -0.04054083      -0.00068004
C        6.92338174      -0.76635721      -1.05487592
N        6.85253804       0.69781540      -1.07991646
H        6.56862681      -0.03107236       1.00404952
H        6.37930889      -1.26138459      -1.86082080
H        7.83934089      -1.26231200      -0.72437763
H        7.70593495       1.10212767      -0.67965845
