14
Properties=species:S:1:pos:R:3 -1396.3597180238312=T 10.296583=T 10.51902=T -8.8277=T -6.8541=T -9.419=T 0.7846=T -0.8439=T 0.268=T 8.81841=T 0.14127=T 4.6284469744=T 12.3076686676=T 0.244347023=T pbc="F F F"
C        0.98381753       0.03039643      -0.07175731
C        2.49148916      -0.01945692      -0.07765398
C        3.16206826      -1.18286673      -0.07438708
C        3.24485939       1.28354985      -0.08663131
N        2.69370462       2.29060550       0.69106008
N        4.34910398       1.51595156      -0.71481336
H        0.59890912       0.68605854      -0.86794503
H        0.59381462       0.41130211       0.88682556
H        0.56008767      -0.97172744      -0.21544086
H        2.63463352      -2.13786161      -0.09761817
H        4.25177964      -1.21403179      -0.03363772
H        1.69925580       2.26708243       0.88317157
H        3.08385626       3.21353090       0.51666036
H        4.64190043       0.67465717      -1.22227275
