16
Properties=species:S:1:pos:R:3 -1592.664824146669=T 11.364727=T 12.37413=T -9.4603=T -7.2877=T -9.954=T 0.7018=T -0.3085=T 2.151=T 9.53678=T -1.74039=T 4.3573267882=T 10.4452873602=T 0.21518457=T pbc="F F F"
N        0.97573485      -0.07222490      -0.03836955
C        2.45337171      -0.03348471       0.00462850
C        2.96845705       1.42668701      -0.01082642
C        2.41816325       2.24837488       1.18750454
O        1.01865755       2.45904505       1.10489442
C        4.42661349       1.44113748      -0.02049185
C        5.64066316       1.44824701       0.01282392
H        0.64215166      -1.00412572       0.21526663
H        0.64574713       0.10458798      -0.99109503
H        2.93274558      -0.59554857      -0.81639476
H        2.77549123      -0.49933322       0.94874259
H        2.60463203       1.91788244      -0.93319434
H        2.90092375       3.23650002       1.19946772
H        2.70531624       1.72627304       2.12334228
H        0.64249724       1.57090730       0.88463996
H        6.71124408       1.46354491       0.03466139
