17
Properties=species:S:1:pos:R:3 -1743.9968348099292=T 10.794721=T 12.11603=T -9.6369=T -7.56=T -11.763=T 0.9211=T 0.021=T 2.675=T 10.84232=T -2.35514=T 9.1290395856=T 10.9347468924=T 0.229908893=T pbc="F F F"
C        1.91098508       0.13808931      -0.68961917
O        1.66477640      -0.08188433       0.71496016
C        0.53210270       0.05241206      -0.18479585
C       -0.38024845       1.26592692       0.04354085
C       -1.81540715       0.72128058      -0.11270620
C       -1.69316244      -0.76881255       0.25693819
C       -0.35619505      -1.17522061      -0.38312471
H        2.33505693       1.11757882      -0.94100412
H        2.34631104      -0.71370214      -1.22653698
H       -0.20570571       1.62844629       1.06825327
H       -0.15737625       2.09553707      -0.64210791
H       -2.54441975       1.26216440       0.50649511
H       -2.14384804       0.81341187      -1.16114898
H       -2.54318884      -1.37105704      -0.09276353
H       -1.63297254      -0.88099989       1.35198932
H       -0.49756625      -1.35363716      -1.46281184
H        0.10465832      -2.07214361       0.05186239
