16
Properties=species:S:1:pos:R:3 -1540.417475794601=T 10.494789=T 11.34524=T -9.6844=T -7.6507=T -10.591=T 1.1447=T -0.4891=T 0.45=T 9.97388=T 0.24286=T 5.5029698268=T 6.5205601246=T 0.202653446=T pbc="F F F"
C        1.93716780      -0.32466732       1.43434486
C        2.41475120       0.09644742       0.03567096
C        3.04212773       1.46398094       0.01339301
C        2.20755807       2.69333534       0.32553215
O        2.17015147       3.62922003      -0.75259915
N        4.29306709       1.51080456      -0.29134441
O        4.77829465       2.86517382      -0.26872429
H        1.46410294      -1.31556381       1.39467501
H        1.19794099       0.37760570       1.84661636
H        2.78180019      -0.37751203       2.13568155
H        1.55844720       0.10275748      -0.66076677
H        3.14598012      -0.62801270      -0.34989488
H        2.59804518       3.15964789       1.25088830
H        1.16530888       2.40029771       0.51257075
H        3.10239149       3.86574382      -0.92382469
H        5.70822499       2.74032116      -0.52447875
