13
Properties=species:S:1:pos:R:3 -1404.5257277852513=T 10.531963=T 10.97626=T -8.5902=T -6.7203=T -8.47=T 0.8018=T -0.0497=T 0.622=T 7.75525=T 0.01862=T 4.6565917964=T 11.6911110868=T 0.315253198=T pbc="F F F"
C        1.35607915       0.77700713       0.13584598
C        2.55513815      -0.26130949       0.02397259
C        3.49140624       0.95302392      -0.01128390
C        2.44762361       1.83481916       0.08558187
N        2.95667180       3.09291184       0.08137459
N        4.32339232       3.05526218      -0.01664731
C        4.65827759       1.74932299      -0.07405998
H        0.78580960       0.71915106       1.07425496
H        0.65903213       0.76522060      -0.71453750
H        2.52996786      -0.87356923      -0.88872668
H        2.65687369      -0.91934798       0.89871635
H        2.50433485       3.99913584       0.13687997
H        5.71045302       1.48886197      -0.15541093
