18
Properties=species:S:1:pos:R:3 -1751.7537783189591=T 11.748249=T 12.74991=T -9.3222=T -7.1221=T -9.314=T 0.7862=T -0.3043=T 1.381=T 8.679=T -0.73992=T 6.462956229=T 0.399316058=T pbc="F F F"
C        1.38426553      -0.57219341       0.58414946
C        2.86978449      -0.55435299       0.34578071
C        3.64465577      -1.62533717       0.57323097
C        3.40590550       0.75342817      -0.20214306
O        2.92856030       1.82796447       0.61542500
C        4.93369801       0.85600507      -0.31734126
N        5.26887687       2.25001464      -0.66820614
H        0.83550183      -0.35578327      -0.34724717
H        1.10325528       0.21234373       1.30147860
H        1.05336748      -1.54646166       0.96641496
H        3.21187763      -2.55929631       0.93757810
H        4.72258342      -1.62031901       0.40860908
H        2.98350704       0.86561135      -1.22994687
H        3.54996157       2.56065960       0.39843602
H        5.31573092       0.10939321      -1.03605154
H        5.37366272       0.64446199       0.66880076
H        5.16156314       2.40546584      -1.67364650
H        6.24099249       2.45877577      -0.43818113
