18
Properties=species:S:1:pos:R:3 -1803.5804352460934=T 11.95039=T 12.7085=T -8.2083=T -6.2009=T -8.992=T 1.0701=T 0.0361=T 1.411=T 8.49806=T -0.76593=T 6.0859272016=T 0.275037208=T pbc="F F F"
C        0.94707578      -0.01168578       0.08480452
C        2.46450032      -0.02807700      -0.07915218
C        3.03861099      -1.26347962      -0.75397842
C        4.08960070      -0.92197890      -1.50767179
C        4.30781854       0.57309639      -1.41632037
N        3.04823663       1.11842042      -0.84941308
C        2.18270509       1.60701167      -1.92854808
H        0.60822160       0.92897573       0.54152942
H        0.64828558      -0.83144721       0.75351051
H        0.42204556      -0.15072315      -0.87038438
H        2.90164126       0.02814816       0.93983943
H        2.66747286      -2.27436777      -0.57860661
H        4.73702266      -1.60071260      -2.06370595
H        5.15584850       0.79241863      -0.73778766
H        4.53956446       1.05023920      -2.38104390
H        2.69862381       2.43505561      -2.43474483
H        1.25156318       2.01423367      -1.51364294
H        1.92228248       0.84342255      -2.69269368
