14
Properties=species:S:1:pos:R:3 -1425.7139687685706=T 10.544672=T 11.04794=T -8.9135=T -6.79=T -9.53=T 1.5321=T -0.2274=T 1.155=T 9.25031=T -0.67965=T 6.3985207048=T 0.402171939=T pbc="F F F"
C        0.64904850       1.01454815       1.80545057
C        1.01937421       0.26140536       0.76573371
C        2.42891750       0.14692347       0.28030381
O        2.74956459      -1.24960139       0.12594803
C        3.98971869      -1.52456384      -0.36829970
C        4.96062848      -0.66452033      -0.71420458
H       -0.39765879       1.10820889       2.09663546
H        1.38173265       1.57011250       2.39632045
H        0.27207709      -0.29369467       0.19008701
H        3.13439176       0.61830623       0.98686093
H        2.54238218       0.64240384      -0.70301881
H        4.11641162      -2.60590608      -0.45692039
H        4.87020938       0.41696618      -0.63369134
H        5.89679213      -1.06593830      -1.09657516
