18
Properties=species:S:1:pos:R:3 -1751.907536756238=T 11.096735=T 12.05791=T -9.3788=T -7.2442=T -10.488=T 0.7975=T -0.174=T 2.799=T 9.86014=T -2.51105=T 8.207377256=T 12.9629470762=T 0.078838567=T pbc="F F F"
N        0.89521154      -0.05706728       0.03473459
C        2.35973995      -0.07310734      -0.00565159
C        2.75351316      -0.04245137      -1.48766942
O        2.15901665       1.05951821      -2.16134263
C        3.04993663       1.05085753       0.81656194
C        4.13434540       0.02793465       1.25312316
C        3.19633554      -1.12271177       0.79665848
H        0.56247576       0.08658128       0.99036645
H        0.51691393      -0.95472651      -0.28403462
H        2.45167397      -1.00700118      -1.95158605
H        3.84524130       0.04824409      -1.59797456
H        1.26962876       1.13192305      -1.75156168
H        2.42388111       1.36591122       1.66566592
H        3.36108686       1.94322651       0.25692599
H        5.04191822       0.09453859       0.63792538
H        4.43096431       0.03911135       2.30975690
H        3.63849066      -1.95308767       0.22456140
H        2.61522625      -1.53947337       1.63281034
