14
Properties=species:S:1:pos:R:3 -1393.8052862313182=T 11.123275=T 11.51268=T -8.5774=T -6.5598=T -9.325=T 1.4363=T -0.3018=T 0.286=T 8.8695=T 0.28413=T 5.4738455154=T 6.2626320488=T 0.287704278=T pbc="F F F"
C        0.01077180       0.42066440      -0.00315050
C        1.44220249       0.04683234      -0.22920939
C        2.43690532       0.93744244      -0.26482573
O        3.75043183       0.49868650      -0.42864676
C        4.70310984       1.41655323      -0.73546017
N        4.43337274       2.64417721      -0.98616976
O        5.63936666       3.35587911      -1.24832470
H       -0.38858978      -0.06242825       0.90300926
H       -0.62322206       0.09162640      -0.84161166
H       -0.11222664       1.50668994       0.10996421
H        1.68542665      -1.01046333      -0.36999905
H        2.31903835       2.01595020      -0.15573789
H        5.70682265       0.98186285      -0.74403650
H        5.29745015       4.24328695      -1.45551136
