17
Properties=species:S:1:pos:R:3 -1749.7276278730944=T 12.476109=T 13.03597=T -9.1886=T -7.2088=T -9.739=T -0.054=T -1.6932=T -0.694=T 9.24831=T 1.35906=T 3.4218648168=T 5.0346251104=T 0.574255918=T pbc="F F F"
C        1.58338294      -0.24452523      -0.90092970
C        2.43185327       0.28033132       0.27128207
C        2.95198240       1.68348351       0.06849599
C        1.90878274       2.76600714       0.03344714
C        4.28658923       1.89368285      -0.07107087
C        4.94943060       3.17921521      -0.28028570
O        6.16490537       3.29833685      -0.41433091
H        1.26151682      -1.27615030      -0.70344598
H        2.16253055      -0.24226228      -1.83532154
H        0.67905590       0.35933891      -1.05805903
H        3.27986959      -0.39916076       0.44109828
H        1.81800519       0.26342911       1.18951788
H        1.23596740       2.62348043      -0.82667352
H        2.32416884       3.77634130      -0.02984458
H        1.27687005       2.70665616       0.93400679
H        4.97094946       1.04047218      -0.02997732
H        4.29722964       4.08651360      -0.31631901
