20
Properties=species:S:1:pos:R:3 -1938.3058702589908=T 12.336398=T 13.70725=T -8.6847=T -6.5905=T -10.187=T 0.9268=T 0.0095=T 3.02=T 9.47789=T -2.68696=T 8.3252631448=T 10.2813902668=T 0.164228272=T pbc="F F F"
C        1.09137890       0.08425430       0.19805049
C        2.60026752       0.00149307      -0.05850249
C        2.91533498      -0.78425201      -1.33593821
C        3.21570263       1.39813098      -0.11749038
C        3.27401049       2.26527675       1.16872985
C        4.70759152       2.63793094       0.72566270
N        4.70884030       1.44711952      -0.16887741
H        0.86629783       0.62308684       1.13060288
H        0.64974243      -0.92000077       0.27702929
H        0.57914740       0.60827827      -0.62541492
H        3.07999636      -0.51738739       0.79138933
H        2.46522953      -0.29921059      -2.21810371
H        2.51718622      -1.80833253      -1.28059326
H        4.00102069      -0.85419912      -1.49634233
H        2.74055660       1.96943429      -0.94446993
H        3.26538815       1.64533567       2.07653331
H        2.54677117       3.07926997       1.26959207
H        4.73000138       3.60588428       0.19135632
H        5.50110228       2.63468128       1.48904527
H        5.10459362       1.61045625      -1.09776887
