13
Properties=species:S:1:pos:R:3 -1377.276050814883=T 12.889505=T 11.94883=T -8.7714=T -6.8669=T -8.914=T 0.1645=T -1.4819=T -0.684=T 8.41074=T 1.16008=T 4.1889661988=T 4.6299224078=T 0.721396573=T pbc="F F F"
C        3.66659646      -2.02546186      -0.11857976
C        4.52169316      -0.99060688      -0.05208671
N        4.08920346       0.32770593      -0.18268892
C        4.97408574       1.25559426      -0.10550252
N        4.61751362       2.58563547      -0.22580131
C        5.49655673       3.65225023      -0.15650341
O        5.16029961       4.81861353      -0.26521976
H        4.02220925      -3.04912899      -0.01432783
H        2.60177331      -1.85415714      -0.27847103
H        5.59720860      -1.16970292       0.10967569
H        6.05329870       1.08912959       0.05676747
H        3.62829471       2.79633208      -0.37753235
H        6.54662667       3.32292671       0.01064044
