16
Properties=species:S:1:pos:R:3 -1539.032480701955=T 10.577332=T 11.406=T -8.7842=T -6.7964=T -10.505=T 1.0149=T 0.0459=T 0.382=T 10.02302=T 0.16464=T 5.6069816822=T 6.3238191398=T 0.169591572=T pbc="F F F"
C        0.99376264      -0.40649134       0.12205303
C        2.47218141      -0.31849607      -0.23397582
C        2.86902438      -1.21762547      -1.39306705
O        2.80237823       1.04838420      -0.66285339
C        3.02124586       1.96390033       0.30000770
N        2.95109986       1.70564207       1.55649996
O        3.27062170       2.88685449       2.30032499
H        0.74655171       0.28165445       0.93975375
H        0.74978728      -1.42771976       0.44800982
H        0.37287345      -0.16496699      -0.75285273
H        3.08594859      -0.53504508       0.65468966
H        2.29467374      -0.96382348      -2.29578491
H        2.66491830      -2.26656844      -1.13794017
H        3.93863240      -1.11708334      -1.61982388
H        3.27153889       2.94998836      -0.10690649
H        3.16493156       2.56932609       3.21380552
