19
Properties=species:S:1:pos:R:3 -1808.9222984503613=T 11.839109=T 12.86102=T -8.6409=T -6.4379=T -10.173=T 0.8869=T -0.0475=T 3.06=T 9.85179=T -2.73996=T 8.3566068056=T 10.8751592208=T 0.10596514=T pbc="F F F"
C        2.18408966      -0.45052632      -1.43820634
C        2.50376636       0.06388965      -0.02692814
N        3.12445258      -0.94561844       0.85277043
C        3.41469542       1.29504157      -0.06988277
C        2.75147251       2.59717403      -0.59814462
N        2.52100798       3.02376606       0.80802295
C        3.54148136       2.04413782       1.28188837
H        1.70182669       0.31838992      -2.06106452
H        1.50624454      -1.31596671      -1.39424989
H        3.10680228      -0.76998455      -1.95009082
H        1.56203015       0.36948949       0.46298569
H        3.95523981      -1.33038798       0.39030060
H        2.48398575      -1.73442785       0.97471598
H        4.36889516       1.02854941      -0.55292290
H        1.83017072       2.49403246      -1.19579919
H        3.46776749       3.22471620      -1.16036665
H        2.74042454       4.00283679       1.00112261
H        4.55053514       2.47097804       1.42657793
H        3.25516186       1.47612043       2.17954127
