18
Properties=species:S:1:pos:R:3 -1753.8222042101631=T 11.411412=T 12.52233=T -8.8217=T -6.6428=T -10.174=T 1.356=T -0.6784=T 0.015=T 10.06359=T 0.6034=T 3.687529619=T 11.7148420072=T 0.143491312=T pbc="F F F"
C        0.82567561       2.32830767      -0.47770952
N        1.79160365       1.36889777       0.05438054
C        3.17863643       1.81900662      -0.08957183
C        4.16389931       0.74860611       0.38928625
C        4.08961764      -0.54089707      -0.42831334
C        4.77640211      -0.49265194      -1.76845039
O        5.39430961       0.45851021      -2.21470121
H       -0.19542719       1.97053968      -0.28495088
H        0.95200012       2.40413948      -1.56862855
H        0.92158921       3.35218692      -0.05834344
H        1.59709536       1.21814561       1.04851784
H        3.37943220       2.76995318       0.45095648
H        3.35589837       2.02708631      -1.15740444
H        3.96226429       0.51902235       1.44911222
H        5.18374193       1.15890275       0.33944210
H        3.03559440      -0.82266237      -0.60830627
H        4.52701537      -1.40183911       0.11039349
H        4.68995156      -1.43926418      -2.36483906
