18
Properties=species:S:1:pos:R:3 -1750.48076752946=T 11.138348=T 12.27766=T -8.9888=T -6.8373=T -10.428=T 0.8394=T -0.1279=T 2.703=T 9.84309=T -2.44733=T 8.2601209004=T 11.4051869722=T 0.113891378=T pbc="F F F"
C        0.91889357      -0.06045732      -0.05905517
C        2.43163991       0.01169065       0.03726285
C        3.14430168       1.07862369       0.96146556
N        2.45525593       1.55793427       2.15907053
C        4.21161943      -0.00170751       1.28997890
C        3.21322319      -1.08608422       0.80726498
O        3.67596551      -2.24463038       0.12950317
H        0.60567367      -0.97708860      -0.58056823
H        0.50220416       0.79599336      -0.61151106
H        0.45416990      -0.07275585       0.93935332
H        2.87364881       0.09867422      -0.97232789
H        3.51799072       1.96130216       0.42236092
H        2.10227347       0.77670534       2.71823803
H        1.63966235       2.11885616       1.89917939
H        5.07801499       0.06805508       0.61452046
H        4.57160066      -0.04519372       2.32720570
H        2.61440222      -1.47583731       1.64653957
H        4.22084983      -1.94648002      -0.62138104
