15
Properties=species:S:1:pos:R:3 -1627.9829803161851=T 14.183384=T 14.57217=T -8.6333=T -6.7099=T -8.395=T 0.5811=T -1.0045=T 0.208=T 7.90625=T 0.35789=T 4.3565828722=T 5.0564342478=T 0.811048872=T pbc="F F F"
C        1.12937747      -0.55665178      -0.47876658
C        2.40585990      -0.29261992      -0.14106353
C        3.02692564       1.01408109      -0.25486389
C        4.30115102       1.27926562       0.09224769
C        4.94093709       2.64191544      -0.00689095
C        6.17518339       2.63632608      -0.79083230
C        7.20190621       2.60922276      -1.43742627
H        0.70789434      -1.55640393      -0.37565800
H        0.47255935       0.22452269      -0.86858610
H        3.03580511      -1.10082988       0.24671771
H        2.40054852       1.82316460      -0.65049108
H        4.93743849       0.47491758       0.47560758
H        5.17530709       3.01461825       1.00756374
H        4.22810036       3.36054189      -0.44331782
H        8.10418601       2.59451950      -2.01370020
