16
Properties=species:S:1:pos:R:3 -1511.2978174633654=T 11.045445=T 11.43338=T -8.5854=T -6.5364=T -9.2=T 1.1939=T -0.1025=T 0.867=T 8.76133=T -0.27124=T 4.9729048796=T 5.6954084974=T 0.189595917=T pbc="F F F"
C        0.92273016      -0.10680149      -0.02184251
C        2.45335407       0.04530745      -0.01105581
C        3.09358248      -0.73161094      -1.17500171
C        2.84355965       1.49646928      -0.06512441
N        3.53415159       2.04260396       0.86930256
N        3.93079054       3.35410720       0.70433455
H        0.46661504       0.39899124       0.84079158
H        0.63594199      -1.16840230       0.01072958
H        0.48979080       0.32641854      -0.93791139
H        2.84662432      -0.35033133       0.93933651
H        2.75377069      -0.33841717      -2.14652701
H        2.81655096      -1.79555699      -1.13127403
H        4.18961678      -0.65931602      -1.14461328
H        2.51896450       2.07537456      -0.95448340
H        4.05014114       3.79422524       1.61462038
H        3.32223530       3.91511878       0.09377836
