17
Properties=species:S:1:pos:R:3 -1696.2220283232323=T 12.169243=T 12.61171=T -8.8919=T -6.9636=T -9.411=T 0.6209=T -0.9401=T 0.173=T 8.76981=T 0.25005=T 4.6331336452=T 5.641548979=T 0.440224132=T pbc="F F F"
C        3.40914543      -0.36075470      -1.57559018
C        2.97851743       0.16973248      -0.19936858
C        3.29968077       1.63204270       0.00338865
C        2.33567917       2.56334664       0.12198515
C        4.74918641       2.01463570       0.08693541
N        5.05215960       3.29195412      -0.36561370
N        5.69644062       1.29145920       0.58831266
H        3.17820943      -1.43102955      -1.66988269
H        4.48956009      -0.23266582      -1.73000803
H        2.88346471       0.17267140      -2.38065959
H        3.46809722      -0.42918090       0.58798108
H        1.89660408       0.02596352      -0.06125677
H        1.28041352       2.28533539       0.08559754
H        2.57159392       3.61391984       0.29470361
H        4.51254376       3.63241930      -1.15615237
H        6.05285626       3.47111036      -0.42040635
H        5.31629757       0.41919032       0.97071415
