17
Properties=species:S:1:pos:R:3 -1747.19850717213=T 11.186475=T 12.74978=T -9.2176=T -7.1614=T -10.582=T 1.2968=T -0.5057=T 0.26=T 9.63411=T 0.47544=T 3.7392689768=T 11.8330502596=T 0.261285056=T pbc="F F F"
C        0.86457326       0.01238657      -0.24852940
C        2.31559922      -0.32054058       0.04606965
O        2.74255337      -1.46316296      -0.02563442
C        3.20052825       0.85650051       0.45191143
C        4.67847758       0.55429136       0.45882864
C        5.50779406       0.80594305      -0.77665512
C        5.67881101       1.68530881       0.44235766
H        0.44538136       0.68249861       0.51659074
H        0.27183827      -0.90648590      -0.31542919
H        0.80480667       0.54925007      -1.20876654
H        2.85799572       1.16777211       1.45790847
H        2.97319051       1.71612533      -0.20272111
H        4.94968351      -0.33017177       1.03819502
H        5.00720084       1.23708276      -1.64571309
H        6.29678164       0.09441709      -1.01966960
H        6.58840307       1.57856847       1.03422635
H        5.29435165       2.70559647       0.38887052
