15
Properties=species:S:1:pos:R:3 -1540.8754390477852=T 10.05691=T 10.75681=T -9.0596=T -7.0797=T -10.452=T 0.736=T -0.2496=T 0.779=T 9.66909=T -0.16847=T 4.81499631=T 11.4189370196=T 0.177416895=T pbc="F F F"
O        1.46476617       0.05417566       1.03959153
C        2.45420384       0.01865448       0.30373801
N        3.04009765      -1.17482401      -0.09017396
C        4.00394215      -1.28917520      -1.18184248
C        4.91611118      -0.06551461      -1.17690261
C        4.07105120       1.20496968      -1.21199148
N        3.10309728       1.16904645      -0.11856839
H        2.46197681      -1.97903307       0.13567446
H        4.59301165      -2.20710412      -1.03607115
H        3.49884007      -1.37399360      -2.16407618
H        5.53386275      -0.07111481      -0.26589529
H        5.58651950      -0.09405124      -2.04735983
H        4.70874752       2.09312436      -1.08799895
H        3.57066613       1.29312969      -2.19634011
H        2.56923612       2.00841034       0.08743645
