16
Properties=species:S:1:pos:R:3 -1628.6261955109442=T 12.085014=T 13.47589=T -9.0796=T -7.0668=T -9.749=T 0.9676=T 0.0142=T 2.44=T 9.51274=T -2.01022=T 4.4066112232=T 10.665337713=T 0.3453306=T pbc="F F F"
C        1.27052252      -0.16006196       0.13807864
C        2.74487299      -0.06775680      -0.16364289
C        3.31486952      -0.35761525      -1.51409962
N        3.19069164       1.02887993      -1.03796748
C        4.45792885       1.66148140      -0.63995221
C        5.15738205       2.25390089      -1.77669932
C        5.75362190       2.74219553      -2.71358753
H        0.99047755       0.52270412       0.95399765
H        0.99965318      -1.18223192       0.44209515
H        0.67983485       0.10805507      -0.74798152
H        3.41122516      -0.30659993       0.67650092
H        2.65309897      -0.62487567      -2.34162779
H        4.31820731      -0.79396974      -1.56046142
H        5.14330198       0.94542598      -0.13523240
H        4.22320434       2.45017745       0.09468996
H        6.27368720       3.17470090      -3.54368014
