14
Properties=species:S:1:pos:R:3 -1452.3825145969922=T 10.048267=T 10.51019=T -9.5899=T -7.5647=T -10.256=T 0.3871=T -1.3424=T -0.442=T 9.74828=T 0.94778=T 4.1147729764=T 5.654877474=T 0.291193153=T pbc="F F F"
N        3.30998942      -0.84000507       0.64103621
C        2.45532782       0.03225898      -0.19911562
C        2.91766253       1.47230638      -0.13327462
C        2.06979160       2.48035251       0.11586299
C        4.37794899       1.80199943      -0.39961093
O        5.24085990       0.77254534      -0.24797701
O        4.75328121       2.91287178      -0.72607931
H        3.14204814      -1.82616180       0.43356136
H        3.10431443      -0.69493468       1.63293208
H        1.38396987      -0.02311581       0.05826218
H        2.56129438      -0.32694070      -1.23622523
H        1.01278150       2.29909494       0.32022181
H        2.42971683       3.50959028       0.10362212
H        4.72439337      -0.01306157       0.13036394
