17
Properties=species:S:1:pos:R:3 -1635.9058512573417=T 11.230671=T 11.82971=T -8.5241=T -6.4976=T -9.432=T 1.5614=T 0.0181=T 1.332=T 8.95331=T -0.75784=T 6.584214537=T 0.390273399=T pbc="F F F"
C        3.08163307      -0.86144459      -0.72883058
N        2.59457398       0.04568721       0.31068897
C        3.11377526       1.42674269       0.21608450
C        2.38174601       2.30269360       1.23525127
C        4.61084370       1.49984916       0.39877894
C        5.49992597       1.74952948      -0.57032779
H        2.67255826      -1.86479388      -0.54604900
H        4.18412767      -0.93782953      -0.80385922
H        2.70241425      -0.52352767      -1.70603877
H        2.82535203      -0.33167612       1.23489378
H        2.86896230       1.77972328      -0.80218802
H        2.59699365       1.96608281       2.26230417
H        1.29668947       2.24079135       1.07655674
H        2.70067480       3.35079817       1.15377848
H        4.96955125       1.28015153       1.41363680
H        5.17715928       1.97328539      -1.59104414
H        6.57483905       1.74997712      -0.38137616
