20
Properties=species:S:1:pos:R:3 -1944.2446577710589=T 12.345465=T 13.66781=T -8.7665=T -6.6413=T -10.145=T 0.8944=T -0.0238=T 2.955=T 9.58518=T -2.69511=T 8.2284052816=T 9.902017904=T 0.093707453=T pbc="F F F"
C        0.91646702      -0.00185746       0.02170469
C        2.43620422       0.02488521       0.03106604
C        3.18448334       1.06118512       0.91636192
C        4.25540166      -0.01999636       1.25027423
C        5.51434183       0.06718921       0.39139636
C        3.21759493      -1.09523549       0.79334761
N        3.71573840      -2.30644851       0.15830026
H        0.53291064      -0.87229982      -0.53421580
H        0.49557763       0.90001095      -0.44921032
H        0.51973165      -0.05739411       1.04818126
H        2.81734952       0.08209102      -1.00377831
H        2.58930941       1.33996335       1.79955956
H        3.54149638       1.97971691       0.42806998
H        4.54404824      -0.09116017       2.31026587
H        5.28038411       0.20880726      -0.67590320
H        6.12306702      -0.84367357       0.48791054
H        6.13285175       0.92215246       0.70294476
H        2.62270109      -1.40400883       1.67028853
H        4.13065491      -2.09092146      -0.75190295
H        2.95166624      -2.96300571      -0.01474104
