19
Properties=species:S:1:pos:R:3 -1862.6313003504547=T 11.891037=T 13.54676=T -9.2904=T -7.1474=T -10.959=T 0.9864=T 0.1233=T 3.163=T 10.54888=T -2.85664=T 8.8173015858=T 10.946042017=T 0.206363311=T pbc="F F F"
C        1.75881671      -0.46856277       1.20279720
C        2.10169915       0.19264705      -0.13544422
C        3.21394130       1.21500345      -0.02332964
C        3.37022786       2.33041358      -1.04572976
C        2.91882213       2.62873772       0.36894562
O        3.80881024       3.24713892       1.26368365
C        3.82870617       4.66377953       1.09771842
H        0.94406415      -1.19833741       1.09121151
H        1.44521016       0.28013462       1.94520695
H        2.62942781      -0.99933080       1.61654217
H        1.20359825       0.68031766      -0.55209524
H        2.39401496      -0.57824529      -0.86920669
H        4.15846761       0.83678805       0.37962699
H        2.63709084       2.40486309      -1.85157757
H        4.38694474       2.62177320      -1.31235148
H        1.86607354       2.91110206       0.51375955
H        4.55416575       5.05947253       1.81986523
H        2.83639602       5.10747721       1.30207100
H        4.13739260       4.94619759       0.07514631
