17
Properties=species:S:1:pos:R:3 -1749.1198725230292=T 11.824785=T 12.79912=T -9.1531=T -7.2356=T -10.421=T -0.0813=T -1.7739=T -0.499=T 9.35167=T 1.11294=T 3.5188714632=T 5.7183087116=T 0.383700063=T pbc="F F F"
C        1.13566399      -0.93621405       0.11217264
C        2.47440219      -0.25224834      -0.15494642
C        3.26107108      -0.95426800      -1.28258356
C        2.30233621       1.22474167      -0.51621158
O        1.22952043       1.68612797      -0.89245079
C        3.53021558       2.07612054      -0.40152171
C        3.50867473       3.38187064      -0.70300322
H        0.59616103      -0.45018144       0.93610863
H        1.29056454      -1.99256518       0.37319973
H        0.49125492      -0.88631972      -0.77619556
H        3.09762898      -0.28490934       0.75828962
H        2.67788331      -0.94562564      -2.21524776
H        3.45576205      -2.00138277      -1.01072105
H        4.22784895      -0.47103804      -1.48263109
H        4.44766927       1.59810090      -0.04582200
H        2.58019613       3.83976180      -1.05214964
H        4.39406661       4.01104899      -0.60882626
