15
Properties=species:S:1:pos:R:3 -1545.7748314397243=T 10.035768=T 11.41422=T -9.7953=T -7.5946=T -11.23=T 1.0389=T -1.0426=T -0.279=T 10.35683=T 0.89695=T 3.677982697=T 10.964267959=T 0.228736794=T pbc="F F F"
C        0.82663656      -0.19377495       0.03572101
C        2.24991767      -0.15888507      -0.44801059
O        2.48273595       0.38061109      -1.77407700
C        2.99588454       1.09743133      -0.62930734
C        4.49790811       1.16665509      -0.51786763
C        5.00947223       1.59637410       0.83590139
O        4.30935323       1.86952535       1.79354903
H        0.80051677      -0.34649711       1.12458749
H        0.27702675      -1.01975922      -0.43807181
H        0.31057486       0.74630291      -0.19974880
H        2.84408596      -1.05970403      -0.23907363
H        2.46563607       2.03132181      -0.40736343
H        4.91550138       1.86776824      -1.26455442
H        4.95502057       0.19143855      -0.76222908
H        6.12720934       1.65415191       0.90881482
