18
Properties=species:S:1:pos:R:3 -1779.3388097314617=T 11.620883=T 12.60041=T -8.704=T -6.612=T -9.537=T 0.9125=T 0.0371=T 2.64=T 9.13669=T -2.36921=T 7.059328889=T 10.7526982486=T 0.19676119=T pbc="F F F"
C       -1.49584318       0.78331000      -0.03916441
C       -1.50826735      -0.78074776       0.05566395
C       -0.21163571      -1.46855141       0.61556709
C        0.83570841      -0.74265897      -0.20365407
N        2.12949865      -0.01012237      -0.09059159
C        0.84196051       0.68270948       0.19089003
C       -0.18760867       1.45211987      -0.59751766
H       -2.36470088       1.09776990      -0.63862274
H       -1.66228032       1.19288416       0.97212934
H       -1.67797015      -1.18954395      -0.95505361
H       -2.38230195      -1.08233769       0.65452708
H       -0.09494293      -1.29252786       1.69649438
H       -0.26704274      -2.55743494       0.45109637
H        0.65259458      -0.89887359      -1.27393754
H        2.59128263      -0.15447604       0.81530878
H        0.66929887       0.81547222       1.26834589
H       -0.21734572       2.53835485      -0.41098409
H       -0.07681402       1.29208411      -1.68039719
