11
Properties=species:S:1:pos:R:3 -1037.0482286572067=T 6.812681=T 7.10065=T -8.9137=T -6.5953=T -10.254=T 1.0454=T 0.0587=T 3.458=T 9.61627=T -3.25747=T 8.480456421=T 15.0511068896=T 0.276200966=T pbc="F F F"
C        0.35971598       1.11748061       0.08314934
C        1.00493294      -0.28776219       0.01018802
N       -0.31675370      -0.87230847       0.37415880
C       -0.99203517       0.37917104      -0.07168961
H        0.47009825       1.56993294       1.07677329
H        0.63451014       1.84541854      -0.68914708
H        1.81839580      -0.52153086       0.71448433
H        1.33922639      -0.52791710      -1.01714726
H       -0.57585484      -1.71238509      -0.14875842
H       -1.32681505       0.36248541      -1.12645321
H       -1.83217073       0.69767518       0.56479180
