12
Properties=species:S:1:pos:R:3 -1284.7124669849768=T 11.958613=T 12.01708=T -8.2739=T -6.5755=T -9.14=T 0.4043=T -1.1944=T -0.757=T 8.65456=T 1.46239=T 3.757271744=T 10.6123212994=T 0.315499968=T pbc="F F F"
C        0.95547991       0.04134981       0.00481110
C        2.45316840      -0.00106420      -0.01170347
C        3.29950833       1.06815028      -0.06872575
N        4.64199766       0.79914508      -0.19458457
S        4.97054525      -0.89838902      -0.04949801
C        3.14420170      -1.27986920       0.03066560
O        2.70550008      -2.41499543       0.07526055
H        0.58817074       1.07557184       0.00074926
H        0.56005873      -0.46828568       0.89520814
H        0.53890874      -0.47951591      -0.87009444
H        3.00137479       2.11671395      -0.05681528
H        5.31522568       1.41838849       0.25439687
