17
Properties=species:S:1:pos:R:3 -1670.2704621677676=T 11.663704=T 12.89734=T -9.7033=T -7.4814=T -9.506=T 1.2409=T -0.3248=T 1.162=T 8.96977=T -0.55029=T 6.4374647074=T 0.396392521=T pbc="F F F"
C        0.84698452       1.46301166      -1.32333480
O        2.26661730       1.42904676      -1.36390677
C        2.83680483       1.68802221      -0.07889518
C        4.32206124       1.53897471      -0.16544011
C        5.20091977       2.47029425       0.22902296
C        6.68819016       2.30672764       0.15709581
O        7.30315802       3.32350747      -0.65373117
H        0.49112510       1.25926046      -2.34115178
H        0.47171084       2.45326179      -1.00221584
H        0.44107527       0.69515299      -0.63713990
H        2.42676094       0.96378417       0.65750556
H        2.56577719       2.70420886       0.27080149
H        4.68219098       0.58401442      -0.56569569
H        4.84173653       3.43425688       0.60853195
H        6.94374587       1.29414923      -0.20646487
H        7.14242335       2.42857135       1.15318546
H        6.86281809       3.29614515      -1.52253713
