12
Properties=species:S:1:pos:R:3 -1274.757091802681=T 10.006106=T 10.45094=T -10.3532=T -8.3467=T -11.214=T -0.1128=T -2.0217=T -0.631=T 10.53984=T 0.99708=T 4.6202019054=T 6.9685215426=T 0.299505499=T pbc="F F F"
N        1.69692525      -0.73924275       0.40412210
C        2.25950476       0.29322753      -0.09337027
C        2.08783313       0.55111402      -1.51750270
N        2.02286538       0.86142280      -2.64176789
N        3.04865476       1.21328917       0.66111397
C        4.20818403       1.85020460      -0.02665201
C        2.99856149       2.64963700       0.26402165
H        1.91755969      -0.77198183       1.41250077
H        4.39060512       1.57991087      -1.06955999
H        5.09139046       1.92977666       0.60838031
H        2.97454208       3.32884167       1.11709196
H        2.36254384       2.92032026      -0.58225790
