16
Properties=species:S:1:pos:R:3 -1680.9102844664167=T 11.243147=T 12.63037=T -10.9618=T -8.7066=T -11.423=T 0.791=T -0.1624=T 1.493=T 10.98965=T -1.06549=T 5.3438337958=T 12.012073645=T 0.161120363=T pbc="F F F"
C        0.94247674      -0.01996582       0.01589877
C        2.45784291       0.02760032       0.05077960
C        3.18669615       1.07774322       0.93515862
C        4.25203411       0.00807284       1.28447764
C        3.22513562      -1.08434566       0.85021082
C        3.69970879      -2.25172766       0.13223688
N        4.09101224      -3.17099104      -0.47299438
H        0.58358658      -0.90029257      -0.53742747
H        0.53421533       0.87401296      -0.47850973
H        0.52385192      -0.06193023       1.03321578
H        2.86817027       0.06063002      -0.97078260
H        2.57866141       1.34347630       1.81349737
H        3.52978598       1.99955232       0.44858844
H        5.10590081       0.03540618       0.59507808
H        4.62063403      -0.04752618       2.31594373
H        2.62113714      -1.41138499       1.71199844
