16
Properties=species:S:1:pos:R:3 -1557.170321152596=T 9.97794=T 11.01101=T -9.3957=T -7.1229=T -10.632=T 0.9131=T -0.0922=T 2.655=T 10.05259=T -2.41934=T 8.3891655292=T 11.9209067392=T 0.102718879=T pbc="F F F"
N        0.88553745       0.02914484       0.16768408
C        2.33346647       0.05907586      -0.01395231
C        3.11364625       1.08763329       0.85179298
C        4.16256548      -0.00628103       1.18788250
O        5.38362212       0.02626322       0.45076971
C        3.13596890      -1.07098878       0.67606315
O        3.62614488      -2.08427647      -0.19164586
H        0.48116073      -0.72557802      -0.39427959
H        0.47248078       0.89690213      -0.18501243
H        2.66226467       0.11699922      -1.07168443
H        2.53266028       1.37974144       1.73868418
H        3.49824510       1.98801659       0.35370510
H        4.46549168      -0.08862644       2.23985190
H        5.16220346       0.03707956      -0.49900248
H        2.55148861      -1.49734116       1.51184295
H        4.53490314      -2.29090424       0.09590056
