19
Properties=species:S:1:pos:R:3 -1828.3818502252207=T 11.67447=T 12.55073=T -8.4434=T -6.2882=T -9.883=T 0.8345=T -0.1499=T 2.98=T 9.16667=T -2.65117=T 7.9661128986=T 11.1686092856=T 0.113134681=T pbc="F F F"
C        0.96704713       0.00759238       0.00208019
C        2.49550097       0.02039264      -0.00331049
N        2.94041824       0.08803659      -1.41556029
C        3.09398746       1.14192263       0.88739740
C        4.50835114       0.63981597       1.16941673
N        4.29489478      -0.79599131       1.42056757
C        3.11365689      -1.24665769       0.64463272
H        0.57867923      -0.06454165       1.02766034
H        0.58788051      -0.84216513      -0.58277555
H        0.56621632       0.92993129      -0.44729726
H        3.96358519       0.09640413      -1.45896366
H        2.63674304       0.97939098      -1.82146552
H        2.53306304       1.21216632       1.83369925
H        3.06731463       2.12418651       0.39389474
H        5.16547913       0.85001637       0.29751478
H        4.96666555       1.12605547       2.04482907
H        5.12356350      -1.35005706       1.21091916
H        3.36405187      -1.97564370      -0.14371670
H        2.38317138      -1.72484475       1.31958748
