20
Properties=species:S:1:pos:R:3 -1889.189436746497=T 11.869929=T 12.9777=T -9.0713=T -6.9268=T -10.155=T 0.809=T -0.1443=T 2.977=T 9.48986=T -2.69933=T 8.1538524998=T 11.9326854092=T 0.120623267=T pbc="F F F"
C        1.00110186       1.68826036       1.43204578
N        2.44903839       1.89164043       1.35312299
C        3.03299984       1.37652469       0.10084056
C        4.52651782       1.69947413       0.00595723
C        4.86665943       3.20384962      -0.00260990
C        4.31408854       3.94481346      -1.22560068
O        4.45787232       3.84026709       1.21465653
H        0.63563020       2.01427571       2.41499397
H        0.69198183       0.63583753       1.27203296
H        0.50537743       2.30472506       0.66748417
H        2.89822006       1.41377580       2.14031039
H        2.48789481       1.85254376      -0.73114135
H        2.87393653       0.28298505      -0.01118813
H        4.92741150       1.23109233      -0.90788333
H        5.05472140       1.23266371       0.85511876
H        5.96757781       3.28969856      -0.02559662
H        3.21431688       3.92154155      -1.25123360
H        4.69310719       3.51107477      -2.16438894
H        4.62106295       4.99833363      -1.18130913
H        3.56791320       3.45789274       1.41778833
