14
Properties=species:S:1:pos:R:3 -1436.556053010011=T 9.578443=T 10.58598=T -9.454=T -7.4895=T -10.662=T 0.9574=T -0.055=T 0.323=T 9.75875=T 0.32726=T 4.3934067142=T 11.623811486=T 0.297228702=T pbc="F F F"
C        1.42235593      -0.41232797      -0.01653752
N        2.80928030       0.01212935       0.03770565
C        3.71319325      -0.29404516      -0.93485594
O        3.47650312      -0.93981704      -1.95739538
C        5.10114218       0.25184887      -0.67814000
C        5.34708870       1.70732946      -0.67497232
O        5.33292602       0.96216199       0.55956280
H        1.17813514      -1.07816813       0.82412843
H        1.28153344      -0.95867115      -0.95690841
H        0.74144089       0.45135631       0.00276360
H        3.17559734       0.49613647       0.85580699
H        5.90548047      -0.41651960      -0.99987540
H        4.50223851       2.38799245      -0.82055785
H        6.32937472       2.08165414      -0.97907464
