18
Properties=species:S:1:pos:R:3 -1795.1498630324013=T 12.387785=T 13.28303=T -8.8316=T -6.734=T -9.144=T 0.9148=T 0.001=T 1.431=T 8.50645=T -0.77275=T 6.3825761052=T 0.428438677=T pbc="F F F"
C        1.03800280       0.27855456       0.88657626
C        2.37088121       0.02671868       0.23717593
C        2.70864687      -1.16363288      -0.28551963
C        3.34444025       1.17777359       0.18690189
C        2.95190412       2.51747545      -0.50833194
C        3.66469857       3.21490721       0.67189293
N        3.52198463       1.95592938       1.45351663
H        1.18114715       0.70918222       1.88849895
H        0.45158685      -0.64571945       0.96630268
H        0.44560651       1.01021275       0.31340658
H        2.01793045      -2.00947868      -0.28161826
H        3.68966627      -1.32486968      -0.73908572
H        4.30461374       0.81553095      -0.23063174
H        1.86799625       2.68902376      -0.49766337
H        3.34341943       2.68203316      -1.51883735
H        4.70958336       3.47600195       0.42057800
H        3.17637557       4.09111377       1.12517420
H        4.33982596       1.68628324       2.00610395
