12
Properties=species:S:1:pos:R:3 -1123.9298122722214=T 8.370667=T 8.60188=T -9.4678=T -7.3341=T -10.813=T 1.4712=T -0.4744=T 0.341=T 10.40281=T 0.15526=T 5.3265129516=T 6.5954848644=T 0.364829751=T pbc="F F F"
C        0.91053247      -0.21379348      -0.24628850
C        2.41324040      -0.02963169      -0.18543494
O        2.66025995       1.34612302       0.18340791
N        4.04382614       1.55922293       0.26193392
C        4.31266960       2.76716377       0.59608067
H        0.67660745      -1.25077660      -0.52298716
H        0.46112001       0.45267491      -0.99523613
H        0.44784614      -0.00408175       0.72791583
H        2.88773248      -0.22965659      -1.15977514
H        2.87371729      -0.68948365       0.56745079
H        5.37041036       3.01690625       0.67887394
H        3.54294770       3.52283288       0.79199882
