17
Properties=species:S:1:pos:R:3 -1743.3696509109968=T 10.884519=T 12.06611=T -9.4839=T -7.261=T -10.544=T 0.9052=T 0.0197=T 2.877=T 10.21232=T -2.52182=T 8.3352812136=T 10.2503317738=T 0.144250598=T pbc="F F F"
C        1.42737762      -0.17478216      -0.41278975
C        2.83109884       0.04592433       0.09460580
C        3.66506784      -1.09204318       0.63983705
C        4.07724241      -0.40698918      -0.64458869
C        5.08228470       0.71792581      -0.50103929
O        4.63233668       1.49748130       0.62311192
C        3.19890111       1.41573524       0.64929991
H        1.14965003       0.58451859      -1.16111457
H        0.69350599      -0.12198555       0.40707897
H        1.32659402      -1.16383003      -0.88160850
H        3.24461318      -2.09500217       0.55596556
H        4.27211683      -0.91196378       1.53025595
H        4.00432842      -0.93830744      -1.59481132
H        6.10784687       0.39162527      -0.26921483
H        5.10348964       1.33018397      -1.42462426
H        2.88725834       1.58108443       1.69277627
H        2.74335746       2.20332454       0.01351978
