13
Properties=species:S:1:pos:R:3 -1453.767334212481=T 10.750395=T 10.95676=T -9.2894=T -7.3048=T -9.454=T 0.2517=T -1.2949=T -0.03=T 9.48095=T 0.68731=T 4.1466249798=T 6.751409658=T 0.527353709=T pbc="F F F"
C        1.00773178      -0.00171799      -0.07211523
C        2.50262407      -0.02616380       0.07169864
N        3.14761743       1.15841700       0.06530454
C        4.48385738       1.10968155       0.18528017
C        5.18454438      -0.08817759       0.31087952
C        4.41715444      -1.25394980       0.30661471
N        3.08275358      -1.24032100       0.18897824
H        0.63807187       1.02844265      -0.05393287
H        0.53983354      -0.58558643       0.73201675
H        0.71566596      -0.47577906      -1.02070650
H        5.00571600       2.07214775       0.18038277
H        6.26995488      -0.11366374       0.40836948
H        4.88624468      -2.23879956       0.40181979
