11
Properties=species:S:1:pos:R:3 -1192.4052847778235=T 9.082683=T 9.07138=T -9.4342=T -7.4022=T -9.902=T -0.4773=T -2.2194=T -0.308=T 9.54327=T 0.90607=T 4.0827101968=T 8.4907844548=T 0.290281552=T pbc="F F F"
O       -1.16392067       0.71006546       0.72672572
C       -1.08515846      -0.42150088      -0.15690201
C       -0.10730422      -1.44946626       0.22332107
N        1.15451303      -1.24780678       0.44945682
N        1.73508871      -0.00331552       0.11663114
C        1.00148925       0.92732848      -0.41224747
C       -0.46378732       0.91049411      -0.51306363
H       -2.03936346      -0.71838577      -0.60279592
H       -0.44509069      -2.48764945       0.32110807
H        1.54803172       1.78482781      -0.82148628
H       -0.96728790       1.57977879      -1.21734751
