11
Properties=species:S:1:pos:R:3 -1244.2780005185416=T 9.346357=T 9.74484=T -10.3086=T -8.2961=T -10.893=T -1.6679=T -3.5393=T -2.033=T 9.87628=T 2.25457=T 3.1211243752=T 6.2727989008=T 0.392169169=T pbc="F F F"
C        1.01353544      -0.01039271       0.00525587
C        2.49463283      -0.06357713       0.00183129
N        3.20866658      -1.13878328       0.00061437
C        4.58426085      -0.65739493      -0.00198431
O        5.55961960      -1.35938361      -0.00331939
N        4.63839457       0.82543152      -0.00257491
C        3.40008531       1.15827117      -0.00023637
H        0.58413640      -1.01738814       0.00071873
H        0.65190314       0.54895541      -0.87204406
H        0.65628245       0.53837912       0.89108906
H        3.06280283       2.19915259       0.00003972
