9
Properties=species:S:1:pos:R:3 -1059.7406487496226=T 8.010616=T 7.98861=T -10.0676=T -7.9963=T -10.4=T -1.5017=T -3.4251=T -1.891=T 9.86271=T 2.13687=T 2.985644873=T 7.0518773304=T 0.449426755=T pbc="F F F"
O        0.94094997      -0.09135623       0.00414768
C        2.14986561      -0.03892786      -0.00014248
C        3.01642075       1.20290932      -0.00098491
C        4.28510834       0.76942720      -0.00648305
C        4.21401986      -0.73196558      -0.00915282
N        3.01925142      -1.22082605      -0.00580647
H        2.61960918       2.21373676       0.00246473
H        5.20524971       1.35090020      -0.00871608
H        5.09524517      -1.38016775      -0.01369661
