10
Properties=species:S:1:pos:R:3 -1192.5770017016246=T 9.827647=T 10.03683=T -9.4443=T -7.4483=T -8.914=T 0.8072=T -0.8772=T -0.035=T 8.45118=T 0.51759=T 4.7399351856=T 6.7494382806=T 0.362151219=T pbc="F F F"
N        0.95036307      -0.00764363      -0.00645294
C        2.11928333      -0.02125453      -0.00228354
C        3.54037960       0.00025056       0.00270070
C        4.34499626       1.12949970       0.00289956
N        5.62891129       0.64511492       0.00862258
C        5.55634664      -0.72893044       0.01160417
N        4.30998851      -1.15367923       0.00817800
H        4.11081057       2.18725260      -0.00041161
H        6.47588283       1.20647421       0.01031927
H        6.44230791      -1.35702415       0.01622382
