14
Properties=species:S:1:pos:R:3 -1410.360654315983=T 8.804626=T 9.62718=T -10.4438=T -8.2205=T -11.768=T 1.8337=T -0.1143=T -0.119=T 10.74334=T 0.63707=T 4.3736433458=T 13.3773330854=T 0.136717103=T pbc="F F F"
C        0.83454904      -0.26134742      -0.06700192
C        2.33303275      -0.00546349      -0.14452878
C        3.05393337      -0.88551976      -1.15136164
O        2.56273591       1.38630037      -0.58223176
C        2.59017911       2.32646382       0.38593894
O        2.44524923       2.15160347       1.57842726
H        0.36151317       0.40307038       0.66719017
H        0.65101669      -1.29950635       0.24456232
H        0.36337010      -0.10678501      -1.04836845
H        2.78095860      -0.10219773       0.85548396
H        2.63339641      -0.75438170      -2.15869680
H        2.94433805      -1.94108264      -0.86651733
H        4.12511376      -0.64702437      -1.18587897
H        2.77620382       3.31019044      -0.09007698
