14
Properties=species:S:1:pos:R:3 -1464.0669042192574=T 11.39983=T 11.2507=T -8.5769=T -6.6486=T -9.339=T 0.2976=T -1.328=T -0.455=T 8.79491=T 0.95744=T 5.1001145156=T 5.1554866632=T 0.357043612=T pbc="F F F"
C        0.89467417       0.00866052      -0.03080810
C        2.23511992       0.11474375      -0.11261163
C        2.95868174       1.36647916      -0.09300462
N        4.25705960       1.37217957      -0.15689277
O        4.73890067       2.67224369      -0.10472882
C        3.60528768       3.61358801      -0.14637691
C        2.35970353       2.74971979       0.04945988
H        0.40688272      -0.96529773      -0.04492284
H        0.24862876       0.88444605       0.05272672
H        2.85852747      -0.77885540      -0.19631958
H        3.62911950       4.10967688      -1.12829013
H        3.77287829       4.35536588       0.64438167
H        1.58309329       2.94154479      -0.70365284
H        1.90020267       2.86548505       1.04396998
