17
Properties=species:S:1:pos:R:3 -1786.0783210745487=T 14.237113=T 14.17417=T -8.269=T -6.3403=T -8.144=T 0.4365=T -1.0426=T 0.185=T 7.54475=T 0.4366=T 4.7423653112=T 0.514676842=T pbc="F F F"
C        0.88072924      -0.62454830       0.11031045
C        2.32331418      -0.24088619       0.19191924
C        2.88345531       0.98122962      -0.02420099
C        2.08752774       2.17891385      -0.30953603
C        2.58030569       3.37120082      -0.69547466
C        4.35159164       1.13758676       0.07070289
C        5.25721693       0.29687949      -0.45194441
H        0.74548085      -1.43855897      -0.62107075
H        0.22011010       0.19861092      -0.18608475
H        0.52620173      -1.02042404       1.07627762
H        3.00714392      -1.05089268       0.46507584
H        1.00460376       2.08661848      -0.19424756
H        3.64774619       3.53519001      -0.85285989
H        1.91787362       4.21773044      -0.87759677
H        4.70334163       2.02444044       0.60972099
H        4.95580348      -0.56939807      -1.04504395
H        6.32672399       0.45756742      -0.30975725
