15
Properties=species:S:1:pos:R:3 -1554.6953174815608=T 10.728628=T 11.46646=T -8.379=T -6.3673=T -9.082=T 0.8119=T -0.0701=T 0.912=T 8.53968=T -0.30422=T 4.9494839242=T 12.1367911624=T 0.208249974=T pbc="F F F"
C        1.03643314      -0.02316712       0.62413727
C        2.42946232       0.01991262       0.04081442
C        2.65948341       0.79800317      -1.22587446
N        4.03962449       1.15252029      -1.48431950
C        4.73406805      -0.04111515      -1.66603847
N        4.05935364      -1.13710534      -1.53064776
C        2.70164312      -0.75831691      -1.23414833
H        0.84227621       0.85414377       1.26000925
H        0.89108152      -0.92636822       1.23571580
H        0.27211058      -0.03473931      -0.16760424
H        3.25299300       0.03896500       0.76199194
H        1.88067924       1.42110322      -1.66818245
H        4.25592043       1.95494491      -2.07098665
H        5.80514824      -0.01305121      -1.87595769
H        1.91290262      -1.40018970      -1.63449912
