11
Properties=species:S:1:pos:R:3 -1196.1620234867046=T 9.900631=T 9.92856=T -9.7462=T -7.7587=T -9.836=T -0.3441=T -2.0934=T -1.251=T 9.20682=T 1.7071=T 4.7012887494=T 5.9707442076=T 0.526394167=T pbc="F F F"
C        1.05534744      -0.15701753      -0.39496571
C        2.36705948      -0.01365523      -0.15201023
C        3.07367715       1.26301756      -0.09687088
N        2.50109848       2.44325347      -0.28268915
O        3.50608796       3.37369563      -0.14784470
N        4.72525822       2.77015800       0.12609173
C        4.46325948       1.48586653       0.15765420
H        0.59942296      -1.14605064      -0.42024739
H        0.41129866       0.70470318      -0.57361384
H        2.98823243      -0.89539376       0.02342443
H        5.25129775       0.76474279       0.35584153
