15
Properties=species:S:1:pos:R:3 -1494.704357472055=T 10.319207=T 11.23555=T -9.3452=T -7.1418=T -10.41=T 1.1721=T -0.3352=T 0.385=T 9.69854=T 0.31765=T 4.1325277716=T 7.7677105014=T 0.107835663=T pbc="F F F"
N        1.22199166      -0.51908840      -0.74310513
C        2.31389814      -0.02514772       0.08248381
C        2.14430919       1.39896211       0.63048435
O        1.09779826       2.02857044       0.54120950
N        3.31241908       1.95017867       1.17066535
C        3.31009972       2.78922841       2.35384884
C        3.99438307       1.44960316       2.36279178
H        1.17165239       0.04435184      -1.59661583
H        0.33775969      -0.33171136      -0.26024043
H        3.25994961      -0.07392060      -0.47878272
H        2.44853668      -0.69945023       0.94762842
H        2.36068848       2.88554510       2.88618444
H        3.91265838       3.69753683       2.28951825
H        5.08375903       1.39058969       2.30213231
H        3.51051661       0.64611205       2.92525706
