16
Properties=species:S:1:pos:R:3 -1574.705709804674=T 9.922079=T 10.9767=T -9.571=T -7.3612=T -10.83=T 0.9404=T -0.0158=T 3.013=T 10.50054=T -2.69212=T 8.6517182828=T 10.655914777=T 0.261982642=T pbc="F F F"
C        0.87595552       0.05937136      -0.27778048
C        2.34480238      -0.00698408       0.09543147
C        2.62031065      -0.05236198       1.58550893
C        3.27302702      -0.78904146      -0.82716603
C        3.31565050       0.72433533      -0.79790696
O        4.40552807       1.38627787      -0.18967426
H        0.73586086       0.12381685      -1.36659826
H        0.39425293       0.93901472       0.17781994
H        0.34248425      -0.83775006       0.07460848
H        3.69651223      -0.02900644       1.79633871
H        2.19409134      -0.96651779       2.02742500
H        2.16275814       0.81264003       2.09113443
H        2.85517198      -1.28659967      -1.70461787
H        4.11114763      -1.30461490      -0.35453429
H        2.88496530       1.25913753      -1.65380340
H        5.17719120       1.27423269      -0.77226543
