19
Properties=species:S:1:pos:R:3 -1945.3522678012275=T 12.38548=T 13.26191=T -8.9777=T -6.8278=T -8.94=T 0.922=T 0.0258=T 1.451=T 8.43695=T -0.79938=T 6.1088150172=T 11.6560974404=T 0.325558364=T pbc="F F F"
C        0.96532283       0.00236667      -0.04085941
C        2.50241927      -0.00048874       0.01511476
C        2.97668440      -0.00153007       1.47199205
C        3.03857243      -1.23016650      -0.78765876
C        3.35366304      -0.67220684      -2.15106257
C        3.35617390       0.66844236      -2.15093930
C        3.04316807       1.22731258      -0.78741892
H        0.61344885       0.00263330      -1.08369944
H        0.55406870       0.89367497       0.45778086
H        0.55072079      -0.88700952       0.45846397
H        4.07579792      -0.00322129       1.53054387
H        2.60867155      -0.88929975       2.00966511
H        2.61137864       0.88710691       2.01007447
H        2.30117381      -2.05024234      -0.81719062
H        3.94942674      -1.64958649      -0.32163323
H        3.58159255      -1.29984345      -3.01449682
H        3.58645221       1.29542471      -3.01422188
H        3.95560054       1.64320426      -0.32131723
H        2.30887377       2.05016921      -0.81680692
