14
Properties=species:S:1:pos:R:3 -1412.817610953349=T 9.576381=T 10.24997=T -9.3184=T -7.2775=T -10.379=T 1.0768=T -0.5656=T 0.347=T 9.86065=T 0.30078=T 5.3652089822=T 6.213930348=T 0.17473062=T pbc="F F F"
C        1.05305390      -0.03328503       0.23527881
C        2.50746425       0.06874005      -0.07703167
N        3.19572376      -0.94960166      -0.47658684
O        4.53094405      -0.56782684      -0.71560216
C        4.70534144       0.78832781      -0.21111890
C        3.29783087       1.36649272      -0.11414932
O        2.88440673       2.19435574      -1.21332715
H        0.68545162      -1.04411572       0.02393433
H        0.48120013       0.69300640      -0.36064362
H        0.86423065       0.19694469       1.29537458
H        5.35761514       1.33769172      -0.90170852
H        5.17500141       0.72216136       0.78426801
H        3.16115121       1.99197859       0.77825088
H        2.91997483       1.64854017      -2.02121845
