15
Properties=species:S:1:pos:R:3 -1540.7618701187355=T 10.828689=T 11.03127=T -9.0525=T -7.0996=T -9.507=T 0.8086=T -0.8873=T 0.519=T 9.07835=T 0.10759=T 4.398279364=T 5.5895244534=T 0.25647516=T pbc="F F F"
C       -1.62180208       0.65270947      -0.10007331
C       -1.30966879      -0.85736177      -0.27068373
C       -0.16300873      -1.27336288       0.61036189
N        1.05868816      -0.89165608       0.43991541
N        1.35502641      -0.15448306      -0.69145546
C        0.76146658       0.98198538      -0.84520119
C       -0.32857384       1.49527922       0.05585705
H       -2.20269459       0.98886737      -0.97359534
H       -2.25511476       0.82112824       0.78534076
H       -1.02231132      -1.04131196      -1.31979052
H       -2.20360246      -1.46113103      -0.06218132
H       -0.33801342      -1.90974371       1.48491130
H        1.07655365       1.56130708      -1.72037224
H        0.02003286       1.41362129       1.09940962
H       -0.53439767       2.55635245      -0.14157291
