15
Properties=species:S:1:pos:R:3 -1609.9361664865833=T 12.391483=T 13.67231=T -9.8576=T -7.5713=T -9.746=T 0.8806=T -0.0754=T 2.114=T 9.44977=T -1.84552=T 4.3507679288=T 10.8146912486=T 0.56790147=T pbc="F F F"
C        0.95350133       0.00284752       0.05692364
C        2.49288985      -0.01210902       0.01406292
C        2.99423084      -0.81497769      -1.22295302
C        4.43200363      -1.04323968      -1.24307488
C        5.62913332      -1.24208612      -1.24436536
C        3.03268966       1.34623408       0.02514638
C        3.44941196       2.48629313       0.01999111
H        0.59728543       0.55150360       0.93785033
H        0.56178896      -1.02325635       0.10299095
H        0.54492343       0.49420992      -0.83743790
H        2.86560991      -0.53203264       0.91383498
H        2.68883933      -0.28173972      -2.13849272
H        2.47308635      -1.78667791      -1.23152920
H        6.68677869      -1.40815872      -1.25324817
H        3.83289731       3.48600961       0.01950096
