16
Properties=species:S:1:pos:R:3 -1534.981581305565=T 10.5402=T 11.41331=T -8.8618=T -6.838=T -10.278=T 0.9719=T -0.0463=T 0.552=T 9.69406=T 0.0859=T 5.7392127512=T 6.2289698498=T 0.160526583=T pbc="F F F"
C        1.27909295       0.04445878       1.18549006
C        2.14575871       0.08515085      -0.07974839
C        3.24101342       1.11636562      -0.01537860
O        2.74436799       2.38570197      -0.00232734
C        3.47513934       3.46376920       0.62781281
N        4.45663725       0.68403779      -0.02087657
O        5.44309806       1.72189393      -0.05274846
H        0.47221397      -0.69342500       1.07586808
H        0.81997001       1.02330210       1.38082583
H        1.87909125      -0.23696280       2.06299831
H        1.51693994       0.32415866      -0.95375684
H        2.61518357      -0.88892130      -0.26785900
H        2.72822758       4.25039049       0.78968785
H        4.28322875       3.82902643      -0.01587996
H        3.89029679       3.14088660       1.59149964
H        6.25763043       1.19121668      -0.06042741
