13
Properties=species:S:1:pos:R:3 -1346.716146361027=T 10.619273=T 10.62444=T -7.381=T -5.4991=T -7.918=T 0.8073=T -0.2733=T 0.862=T 7.38956=T -0.31003=T 4.6088943822=T 5.8851442732=T 0.236969281=T pbc="F F F"
N        0.88754068      -0.03834522      -0.20139642
C        2.29620741       0.01153512      -0.09860103
C        3.09738751       1.14838153      -0.15986725
N        4.40648257       0.70288767      -0.09481643
O        5.51578404       1.53486899      -0.24114503
C        4.47222353      -0.65900741      -0.01985168
C        3.16094316      -1.11981325      -0.01132083
H        0.44490604       0.83621469       0.07679364
H        0.49264772      -0.79514385       0.35578682
H        2.87089333       2.20269018      -0.26558178
H        5.73283897       1.82133873       0.66991455
H        5.42604994      -1.17237507       0.01231802
H        2.85963510      -2.16231212       0.04112742
