18
Properties=species:S:1:pos:R:3 -1798.3235168681492=T 12.954259=T 13.77799=T -9.1407=T -6.9956=T -9.038=T 1.0616=T -0.1346=T 1.29=T 8.51588=T -0.71455=T 6.2153685856=T 0.392818535=T pbc="F F F"
C        0.96941292       0.76904146      -1.56442988
C        2.45369807       0.71881374      -1.35864207
C        3.10333596       1.24252600      -0.31124227
C        4.59613483       1.19143606      -0.06221258
N        5.41499573       0.39669912      -0.99152526
C        5.23324727       2.56294134       0.04833324
C        4.65052159       3.72956533      -0.24859567
H        0.71640467       1.28557005      -2.50454665
H        0.46271576       1.29131699      -0.74077515
H        0.54231463      -0.24391959      -1.64229548
H        3.03208449       0.20810010      -2.13847129
H        2.52165841       1.74918589       0.46949635
H        4.73102850       0.71826395       0.93283886
H        5.35358592       0.80085035      -1.93039196
H        5.04716207      -0.55623109      -1.05206433
H        6.27740608       2.53968527       0.37599313
H        3.61713750       3.78376298      -0.59776357
H        5.19528561       4.67008206      -0.15389543
