13
Properties=species:S:1:pos:R:3 -1354.4940173134435=T 12.497837=T 12.74315=T -7.9977=T -6.1766=T -8.763=T 0.8126=T -0.7185=T -0.215=T 8.22405=T 0.78373=T 4.3997300002=T 11.4174739848=T 0.398589024=T pbc="F F F"
C        0.94813267      -0.00635594      -0.02974268
C        2.44619847       0.03927724      -0.00224247
N        3.07465382       1.20879202       0.06908043
S        4.73092088       0.94811332       0.06760165
C        4.61593335      -0.77160232      -0.01752642
C        3.28250347      -1.13169355      -0.05166647
N        2.76238031      -2.42609840      -0.20596203
H        0.54498001       1.01223678      -0.00637903
H        0.54451258      -0.55419713       0.83776523
H        0.58534025      -0.51053860      -0.93892484
H        5.49372428      -1.41204450      -0.04389670
H        3.40466424      -3.16542274       0.06965256
H        1.85912568      -2.55740618       0.24639076
