13
Properties=species:S:1:pos:R:3 -1429.9324520924317=T 10.146579=T 10.50182=T -9.0275=T -7.0027=T -9.91=T -0.1744=T -1.8942=T -0.676=T 9.63663=T 1.28794=T 3.5087170098=T 5.1451214336=T 0.32608805=T pbc="F F F"
C        1.06248471       0.02721568       0.17861479
C        2.36434866       0.02876657      -0.15337056
O        3.11115273       1.15648018      -0.36497582
C        4.40753386       0.78812823      -0.93633909
C        4.62624905      -0.68454259      -0.60926156
C        3.21383833      -1.19246100      -0.30771688
O        2.85896890      -2.35252293      -0.19997804
H        0.58489518      -0.93454507       0.35523316
H        0.48756657       0.94531113       0.28121943
H        4.36040501       0.96483350      -2.02269900
H        5.14757326       1.46613722      -0.49477108
H        5.08636164      -1.26702113      -1.41620866
H        5.23185209      -0.82344979       0.29984332
