17
Properties=species:S:1:pos:R:3 -1749.5103646981372=T 11.517464=T 12.42537=T -8.8317=T -6.6117=T -8.728=T 0.9266=T -0.0231=T 1.376=T 8.21387=T -0.70866=T 5.8705139252=T 0.30288347=T pbc="F F F"
C        0.89103796       0.14747934      -0.07490007
C        2.38792916      -0.02690721       0.17118011
O        2.61153198      -1.22328154       0.95053396
C        3.48077949      -0.92524820       2.05698150
C        3.66157665       0.56061893       2.02651973
C        3.04959156       1.08568210       0.95720097
C        3.00613982       2.51117736       0.51173170
H        0.48638789      -0.75165724      -0.55894247
H        0.70048083       1.00576614      -0.73635764
H        0.35979415       0.30233820       0.87546121
H        2.89702322      -0.14002729      -0.81209229
H        4.44340982      -1.46366108       1.93877681
H        3.01306886      -1.28941536       2.99079831
H        4.23806122       1.10920741       2.77200538
H        3.40435776       2.61661033      -0.51113515
H        3.59511963       3.15770863       1.17555104
H        1.97322000       2.89388946       0.48896689
