18
Properties=species:S:1:pos:R:3 -1659.8189746676512=T 10.8248=T 11.81213=T -8.9396=T -6.6409=T -10.363=T 0.8975=T -0.065=T 3.12=T 9.875=T -2.84712=T 8.525525332=T 10.842637693=T 0.115944858=T pbc="F F F"
C        1.00579367      -0.58380142       0.11101412
C        2.46879396      -0.22171102      -0.18464958
N        3.09682908      -1.06380828      -1.22319910
C        2.60216007       1.25854250      -0.56760300
C        4.04239323       1.75904844      -0.66982637
N        4.05885276       3.20631786      -0.95935553
H        0.59650783       0.01917320       0.93668851
H        0.91129885      -1.64471417       0.38809211
H        0.37660263      -0.40966166      -0.77731364
H        3.05692763      -0.38465365       0.73770206
H        2.54632737      -0.99212859      -2.08634907
H        3.04261370      -2.04711167      -0.94301154
H        2.06775847       1.87804118       0.17030790
H        2.08688286       1.41968156      -1.53520125
H        4.58971673       1.13895129      -1.40306971
H        4.53941428       1.61194529       0.30433173
H        3.68403771       3.36806317      -1.89905615
H        5.02604917       3.53805597      -0.98843149
