18
Properties=species:S:1:pos:R:3 -1655.3204889576734=T 10.901583=T 11.67987=T -8.3391=T -6.2531=T -9.889=T 0.8944=T -0.0772=T 3.274=T 9.19721=T -2.9782=T 8.0341936112=T 12.3805476384=T 0.126990001=T pbc="F F F"
C        1.44942625      -0.18231921       0.75823810
N        2.82396035       0.24940590       0.98974025
C        3.13587684       1.57658841       0.45628716
C        2.55713694       2.68789316       1.33401832
C        4.66140090       1.70693397       0.35425094
N        5.21728328       0.64847859      -0.50568703
H        1.34557437      -1.23604140       1.05280898
H        1.11794185      -0.08392522      -0.29931478
H        0.74989802       0.39780211       1.37931895
H        3.46962270      -0.39953789       0.52711532
H        2.71834945       1.70127233      -0.57486868
H        2.95521862       2.60890367       2.35689903
H        1.46178454       2.62619356       1.39092109
H        2.81179613       3.67855083       0.92870620
H        5.08173884       1.57385435       1.36439210
H        4.90838884       2.73387328       0.02239421
H        6.23031794       0.58977168      -0.38966513
H        5.05015415       0.87136189      -1.49037501
