12
Properties=species:S:1:pos:R:3 -1262.946106169917=T 9.647445=T 9.72582=T -9.0305=T -7.0329=T -9.64=T 1.0632=T -0.6579=T 0.121=T 9.13568=T 0.43828=T 5.3737516176=T 6.3983719216=T 0.3395284=T pbc="F F F"
C        0.90391468      -0.09555581       0.19892369
C        2.21365934      -0.01954487      -0.04761403
C        3.05830510       1.20719521      -0.14884333
O        4.24014308       1.06824830       0.67259426
N        4.98214982      -0.09095173       0.35149831
C        4.29910768      -1.07477657      -0.11415812
O        2.94400254      -1.18315182      -0.28517444
H        0.33208776       0.81591896       0.35787572
H        0.38917594      -1.05416305       0.23712879
H        2.53299595       2.09426708       0.22242234
H        3.37681235       1.37109494      -1.19527132
H        4.82793574      -1.98777063      -0.38424186
