12
Properties=species:S:1:pos:R:3 -1318.6890340464145=T 10.120484=T 11.22422=T -10.8934=T -8.551=T -10.294=T 0.8869=T -0.8289=T 0.912=T 9.87428=T -0.57693=T 4.3934315114=T 10.7024591214=T 0.400785666=T pbc="F F F"
C        0.96337864      -0.01259286       0.00784496
C        2.50754602      -0.03890995       0.02604071
O        3.01083223      -0.68058195       1.21072909
C        3.02289238      -0.78737843      -1.12791101
C        3.40230129      -1.39629889      -2.10305532
C        3.01668099       1.35982953      -0.03316528
N        3.37718760       2.46886240      -0.01368616
H        0.59467797       0.45226899      -0.91477683
H        0.59087068       0.56280956       0.86610511
H        0.60111558      -1.04544952       0.06865843
H        2.70855614      -0.15498796       1.97528293
H        3.75296049      -1.93849092      -2.95795663
