14
Properties=species:S:1:pos:R:3 -1478.1253523855755=T 12.781095=T 13.48721=T -8.8399=T -6.9824=T -8.574=T 0.7853=T -0.8295=T -0.089=T 7.99288=T 0.7473=T 4.2261000058=T 10.778660917=T 0.279897038=T pbc="F F F"
C        0.93685073      -0.18948719      -0.14014307
C        2.42779558       0.03220477       0.15073277
C        2.82815649       1.47931825       0.07233905
C        3.27801872       2.25219773       1.11874544
S        3.61158752       3.86497100       0.58600552
C        3.11825090       3.38825293      -1.02084377
N        2.74233005       2.14230090      -1.13792652
H        0.69132237      -1.26075775      -0.12098346
H        0.67508562       0.20763714      -1.13026680
H        0.30977059       0.31938087       0.60614762
H        3.03001216      -0.53134860      -0.58039453
H        2.68542610      -0.35964095       1.14594250
H        3.43127190       1.96683924       2.15533960
H        3.14044126       4.10595166      -1.83917434
