13
Properties=species:S:1:pos:R:3 -1400.0631730446464=T 12.177839=T 12.86751=T -7.9631=T -6.0652=T -8.235=T 0.6988=T -0.207=T 0.621=T 7.70861=T 0.05902=T 3.7358965576=T 10.8166130316=T 0.451818285=T pbc="F F F"
C        0.92244571      -0.03568578      -0.00292220
C        2.40892031       0.04815792      -0.00352578
C        3.26723455       1.13916517      -0.00256456
Cl       2.75929198       2.80552303       0.00089360
C        4.61501130       0.68570309      -0.00488695
C        4.55927597      -0.69481827      -0.00723810
N        3.23042438      -1.06424107      -0.00644263
H        0.50353594       0.97785377       0.00967829
H        0.53841258      -0.56768950       0.88186089
H        0.53614909      -0.54631933      -0.89931062
H        5.50716484       1.30222039      -0.00469362
H        5.35060488      -1.43616262      -0.00913454
H        2.89363848      -2.02042679      -0.00754375
