11
Properties=species:S:1:pos:R:3 -1143.4371795813381=T 8.155445=T 8.50962=T -9.7361=T -7.4513=T -9.843=T 1.1667=T -0.9122=T -0.089=T 10.13415=T 0.72677=T 3.6678654394=T 6.7152925362=T 0.450410073=T pbc="F F F"
C        1.73695095      -0.75335072      -0.75089347
C        2.66927158      -0.24508911       0.06065982
C        3.21607405       1.14503186      -0.05025956
C        4.72607219       1.25680569       0.00789198
O        5.49385163       0.33703876       0.21359612
H        1.36690524      -1.77123621      -0.62255918
H        1.31221678      -0.17118699      -1.57304702
H        3.08491923      -0.85983928       0.86406502
H        2.84814006       1.78544121       0.77726969
H        2.87207915       1.65175946      -0.96893498
H        5.10935913       2.30110535      -0.14068842
