16
Properties=species:S:1:pos:R:3 -1619.6470238962966=T 11.541909=T 13.39631=T -9.3636=T -7.0467=T -9.19=T 0.908=T 0.0267=T 2.488=T 8.7887=T -2.06159=T 4.1475672734=T 10.1267053332=T 0.848718988=T pbc="F F F"
C        0.90943826      -0.00519649       0.02287561
C        2.43788480      -0.00602801       0.02302802
C        3.02523218       1.41956893       0.00021848
C        4.48411197       1.45058216      -0.00026928
C        5.70051624       1.44409234      -0.00015807
C        7.15673633       1.44600760      -0.00023134
H        0.51197714      -1.02983392       0.03919988
H        0.50925230       0.49318718      -0.87346347
H        0.50909985       0.52152589       0.90279309
H        2.81801177      -0.55960490      -0.84984747
H        2.81787092      -0.53136718       0.91324336
H        2.64662954       1.98123481       0.87255392
H        2.64663249       1.95302952      -0.88964306
H        7.55412083       2.47217790      -0.01182626
H        7.55670228       0.92419413      -0.88270794
H        7.55677309       0.94423005       0.89375452
