20
Properties=species:S:1:pos:R:3 -1888.9870907695329=T 11.961756=T 13.14168=T -9.0339=T -6.9702=T -10.224=T 0.8259=T -0.113=T 3.129=T 9.44747=T -2.87291=T 8.1045680648=T 12.1740117596=T 0.11502141=T pbc="F F F"
C       -0.06998160      -0.77231946       1.00456698
C        1.24862745      -0.89919645       0.23776485
C        1.51784461      -2.35399886      -0.14667539
N        1.21732851      -0.08319009      -0.99326054
C        1.37368304       1.36432244      -0.79935857
C        1.03913695       2.06693542      -2.11343579
O       -0.25593853       1.69088048      -2.57081948
H       -0.28447787       0.26625069       1.29053138
H       -0.03347136      -1.36791360       1.92786194
H       -0.90473242      -1.13453804       0.38600294
H        2.07172781      -0.56029716       0.90504511
H        0.72978283      -2.72415647      -0.82003246
H        1.53894427      -2.99503693       0.74519020
H        2.48681824      -2.46071981      -0.65849398
H        1.96799244      -0.40714068      -1.61117347
H        2.38623721       1.65697043      -0.45017935
H        0.65163544       1.69031017      -0.03584746
H        1.81264517       1.82281460      -2.87234906
H        1.04389714       3.15888565      -1.97706352
H       -0.31811932       0.74057766      -2.33099434
