16
Properties=species:S:1:pos:R:3 -1633.5615153745296=T 11.709459=T 11.96137=T -8.6557=T -6.7407=T -9.193=T 1.2221=T -0.4604=T 0.038=T 8.59344=T 0.5894=T 4.2607540928=T 5.1283585264=T 0.38324355=T pbc="F F F"
C        2.42733759      -0.31656507       1.76121683
C        2.23951225       0.29091420       0.37103557
N        3.05349307       1.49561898       0.16145592
C        2.63175074       2.74857509       0.61532714
C        1.49270277       3.02923776       1.26943602
C        4.26769534       1.37367115      -0.49443324
O        4.73031034       0.32550735      -0.92229603
H        1.77003405      -1.18935474       1.87833485
H        2.18735734       0.40316887       2.55513182
H        3.46476111      -0.65040558       1.89562941
H        1.18997101       0.56244255       0.18684770
H        2.55169346      -0.42355454      -0.40144195
H        3.34409880       3.54394042       0.38182677
H        0.75349499       2.27646792       1.53791427
H        1.28645059       4.05895001       1.55247383
H        4.78490655       2.35417562      -0.59313892
