18
Properties=species:S:1:pos:R:3 -1772.1955565811163=T 12.383435=T 13.43955=T -8.4101=T -6.4832=T -9.581=T 0.9344=T 0.0372=T 2.289=T 8.8216=T -1.87898=T 4.3627945708=T 10.7365428728=T 0.878161183=T pbc="F F F"
C        3.39261946      -1.46069926       1.09862091
C        2.78358920      -0.08884808       1.37282359
N        3.26453098       0.95924420       0.45902905
C        2.50199586       2.19535559       0.63162699
C        4.71211036       1.20174164       0.55203061
C        5.19612719       1.65069012       1.86825308
C        5.52992463       2.00564411       2.98146677
H        2.88521381      -2.22078018       1.70912220
H        4.46058216      -1.50215985       1.35614895
H        3.27726405      -1.73485205       0.03999686
H        2.95008486       0.19181841       2.43584916
H        1.69297602      -0.14382166       1.22729791
H        1.43932715       1.99057430       0.43841117
H        2.84338536       2.94327259      -0.09906558
H        2.59387160       2.63481490       1.64680805
H        4.97537297       1.95703677      -0.20637901
H        5.24602514       0.28177702       0.26820226
H        5.84224918       2.32587144       3.95456704
