18
Properties=species:S:1:pos:R:3 -1752.6289399524567=T 11.942805=T 13.04314=T -9.3781=T -7.2036=T -9.275=T 0.7799=T -0.1687=T 1.194=T 8.75785=T -0.5732=T 6.2994310936=T 0.411800201=T pbc="F F F"
C        1.93943967       0.66581683      -2.85621714
C        3.21334530       0.66063797      -2.06591147
C        3.38619898       1.26488823      -0.88279371
C        4.65268300       1.30140315      -0.06286609
N        5.83130330       0.59887004      -0.59441698
C        5.09330393       2.75400533       0.21412789
O        6.24906226       2.78338261       1.03808075
H        2.08762699       1.12545924      -3.84692444
H        1.14392893       1.21978894      -2.33869704
H        1.58036712      -0.35961912      -3.04010002
H        4.05099197       0.10756384      -2.50898421
H        2.53761291       1.80573861      -0.44330519
H        4.44320409       0.85131478       0.92547113
H        5.97121076       0.84619489      -1.57892312
H        5.69877079      -0.41360566      -0.55951032
H        4.29497574       3.30547311       0.73374521
H        5.27469198       3.25950192      -0.75812950
H        6.78583229       2.02841528       0.71086428
