22
Properties=species:S:1:pos:R:3 -2078.2307775618674=T 12.985218=T 14.30541=T -8.5242=T -6.4331=T -10.014=T 0.8821=T -0.0212=T 3.031=T 9.26738=T -2.70248=T 8.0362641774=T 10.4482754228=T 0.14274334=T pbc="F F F"
C        1.67081861      -0.50298043       0.40521150
N        3.01049070      -0.07343672       0.80465444
C        3.37088754       1.27683899       0.34536698
C        2.51354468       2.33109028       1.05302359
C        4.88764099       1.53542452       0.53832955
C        5.34374366       1.46541485       2.00239412
C        5.74151631       0.61258221      -0.34381102
H        1.55653789      -1.57444436       0.62028492
H        1.44758302      -0.33919382      -0.67188760
H        0.90519593       0.02831239       0.98911663
H        3.68384166      -0.73376134       0.41133212
H        3.17688827       1.37985636      -0.75056734
H        2.58334736       2.22617285       2.14515739
H        1.45497552       2.24261402       0.77315030
H        2.84237181       3.34244432       0.77289186
H        5.05225585       2.56729026       0.17841339
H        5.14562837       0.47151063       2.42880504
H        4.82764657       2.20581564       2.62927037
H        6.42339698       1.66292850       2.07735717
H        5.72253593      -0.43207165       0.00738498
H        6.79521598       0.92787059      -0.32822419
H        5.40190635       0.62749190      -1.39105418
