16
Properties=species:S:1:pos:R:3 -1516.2731881170466=T 11.090989=T 11.81765=T -9.2181=T -6.9284=T -9.148=T 1.0215=T -0.1941=T 1.413=T 8.64089=T -0.78998=T 6.3770091338=T 0.393403252=T pbc="F F F"
N        1.52214680      -0.39145329      -0.96758521
C        2.60874719      -0.18481191       0.00738677
C        2.96833933       1.27037237       0.08619031
C        4.19897336       1.76401301      -0.10752442
C        4.55865790       3.21914516      -0.02827993
N        5.64379662       3.42552401       0.94844826
H        1.22978467      -1.37114319      -0.96150091
H        1.86925364      -0.19535251      -1.91006495
H        3.52555036      -0.77607040      -0.18956250
H        2.22338787      -0.51133601       0.98953067
H        2.13524100       1.95164765       0.29821563
H        5.03203891       1.08269074      -0.31951318
H        3.64167720       3.81057153       0.16732074
H        4.94562172       3.54563509      -1.00979581
H        5.29502337       3.22947263       1.89033443
H        5.93624006       4.40519511       0.94292009
