15
Properties=species:S:1:pos:R:3 -1473.3671465897264=T 10.852867=T 12.12702=T -10.0327=T -8.0974=T -10.214=T 0.6593=T -0.3032=T 0.096=T 9.86231=T 0.23643=T 5.2410370032=T 11.230465901=T 0.177198862=T pbc="F F F"
O        0.91828430      -0.09015415       0.58699964
S        2.24867431       0.01559985      -0.03692603
O        2.38889864       0.20343468      -1.49176332
C        3.23620989       1.29299009       0.84270223
C        4.55381231       0.60375034       1.19141802
C        4.20557542      -0.84565514       1.58739879
C        3.29765107      -1.40186447       0.49088129
H        2.65236518       1.56579394       1.73157530
H        3.32544247       2.14956423       0.16523184
H        5.22119394       0.60370300       0.31537965
H        5.07362950       1.13165761       2.00291670
H        5.10774725      -1.46226337       1.70284441
H        3.67559753      -0.85125219       2.55273589
H        3.85295302      -1.71002746      -0.40438400
H        2.61902518      -2.19935695       0.81339958
