16
Properties=species:S:1:pos:R:3 -1612.1451185952817=T 10.702383=T 11.63633=T -8.6893=T -6.6536=T -10.257=T 0.8795=T -0.8921=T 0.331=T 9.63273=T 0.44445=T 3.7492002554=T 11.6565809858=T 0.095769578=T pbc="F F F"
C        0.96762333      -0.22953973       0.28210110
C        2.43677324       0.06145716      -0.02815161
N        3.22342052       0.92257955       0.92005913
C        2.53790224       1.81853606       1.83240387
C        3.95078812      -0.23055700       1.50131899
C        3.38120832      -1.08935626       0.36685593
O        3.57001707      -2.21093855      -0.03755535
H        0.59487150      -0.98406976      -0.42416811
H        0.35347744       0.67496561       0.16777356
H        0.82482250      -0.61909461       1.29995062
H        2.54116844       0.39541227      -1.07538299
H        1.96321359       2.56401861       1.26410811
H        3.28461099       2.36488871       2.42695261
H        1.84761684       1.31074164       2.53971058
H        5.04596828      -0.12656120       1.55808311
H        3.57211756      -0.57596251       2.48674042
