13
Properties=species:S:1:pos:R:3 -1329.190146111481=T 10.675786=T 11.64629=T -10.0707=T -8.1171=T -10.212=T 0.6383=T -1.0368=T -0.319=T 10.40004=T 0.99136=T 5.1368143716=T 6.3029646946=T 0.243912521=T pbc="F F F"
O        0.94862178       0.05702471      -0.24438662
S        2.42170648       0.03752556      -0.25426899
O        3.15027703       0.16479361      -1.52678509
C        3.04061446      -1.41263337       0.69000852
C        3.43514064      -0.89790224       2.07973041
C        3.49528089       0.61036353       2.03669128
C        3.03300125       1.21036386       0.93905520
H        3.89615866      -1.79116333       0.11901729
H        2.23194905      -2.15127686       0.69637242
H        4.40570612      -1.31222544       2.39209175
H        2.70396110      -1.20860668       2.84398590
H        3.88255539       1.16420782       2.89406812
H        2.95695715       2.27226884       0.71707980
