19
Properties=species:S:1:pos:R:3 -1873.3661013982635=T 11.701009=T 13.11837=T -9.2678=T -7.0966=T -10.591=T 0.8329=T -0.1274=T 2.993=T 10.24547=T -2.65186=T 8.4827005676=T 10.35469079=T 0.236374939=T pbc="F F F"
C        1.01273395       0.16135788      -0.14060288
C        2.52273876       0.08697760      -0.09508673
C        3.31516697      -0.59731458      -1.20229857
O        2.65231623      -1.06686630      -2.35902597
C        3.42368648       0.89986679      -1.02663478
C        2.80557567       1.80808092      -2.07268339
C        4.71814886       1.42989405      -0.43676686
H        0.64357210       1.07660791       0.34698682
H        0.56410610      -0.69509724       0.38675848
H        0.63244223       0.15219969      -1.17036562
H        2.93127832      -0.05921005       0.91037827
H        4.18682339      -1.19705858      -0.91141369
H        2.19628346      -1.89383066      -2.12241727
H        1.94302893       1.34808335      -2.56758450
H        3.54485330       2.04204939      -2.85450069
H        2.48541121       2.75958775      -1.61971647
H        5.14568716       0.73190370       0.29799763
H        4.54972302       2.39107024       0.07551681
H        5.47162385       1.59525814      -1.22361059
