13
Properties=species:S:1:pos:R:3 -1336.9869397103137=T 12.185727=T 12.59227=T -9.0976=T -7.3072=T -8.964=T 0.1839=T -1.48=T -1.041=T 8.31934=T 1.7697=T 3.4401403532=T 10.6482400436=T 0.403891349=T pbc="F F F"
C        1.07609177       0.20199619       0.00662105
C        2.57176361       0.09935222       0.00005141
C        3.49693125       1.13443643      -0.00099384
C        3.20391664       2.60334005       0.00478730
N        4.80226207       0.70646243      -0.00725693
N        4.98753037      -0.56027478      -0.01141382
S        3.43064574      -1.38633600      -0.00695362
H        0.59794652      -0.78406904      -0.00237971
H        0.71894498       0.75598437      -0.87386315
H        0.72517554       0.73675902       0.90141095
H        2.12476404       2.79719492      -0.00367010
H        3.64966919       3.09048975      -0.87403344
H        3.63334828       3.08086444       0.89709390
