13
Properties=species:S:1:pos:R:3 -1408.410183284509=T 9.822971=T 10.45736=T -7.5094=T -5.4959=T -8.587=T 1.6323=T -0.116=T 0.827=T 8.32862=T -0.43206=T 4.7456757374=T 12.7529023936=T 0.4801303=T pbc="F F F"
C        1.04035005      -0.06869410       0.02090102
C        2.51666071       0.05143041      -0.10665019
C        3.19916515       1.20143657      -0.15867016
O        4.58901394       1.30373240      -0.27872211
C        5.19587228       0.05430638      -0.34729625
C        4.53104910      -1.10149134      -0.29691834
O        3.14634888      -1.20391103      -0.16929701
H        0.57305426       0.92204255       0.06856688
H        0.77510022      -0.62924851       0.93085989
H        0.62116452      -0.61687402      -0.83720058
H        2.71676224       2.17386019      -0.11078313
H        6.27624441       0.11241692      -0.44738229
H        5.02188426      -2.06929643      -0.35265774
