9
Properties=species:S:1:pos:R:3 -822.0290955030067=T 6.432679=T 6.33672=T -9.5867=T -7.4178=T -10.874=T 1.4828=T -0.5344=T 0.307=T 10.49639=T 0.16954=T 5.338031251=T 6.6179511276=T 0.31593753=T pbc="F F F"
C        0.93670895      -0.33768344       0.03248275
O        2.32883092      -0.09131120      -0.20889929
N        2.52599484       1.29436110      -0.33645856
C        3.75821915       1.57064042      -0.55427167
H        0.84793031      -1.42694813       0.12246452
H        0.32290393       0.02115719      -0.80695828
H        0.60841036       0.14428164       0.96527760
H        3.99843215       2.62783737      -0.66614787
H        4.54125939       0.80702505      -0.62775920
