18
Properties=species:S:1:pos:R:3 -1741.5283063160068=T 11.818764=T 12.67681=T -9.2265=T -7.1366=T -9.692=T 1.3156=T -0.1731=T 1.224=T 9.13639=T -0.65687=T 6.7163960116=T 0.451226186=T pbc="F F F"
C        1.10014556       0.09210949       0.92109167
N        2.52925082       0.31245038       1.16221167
C        3.06992056       1.52603847       0.50803918
C        2.69109097       2.73560849       1.39805384
O        3.00657600       2.47282294       2.75844428
C        4.56310582       1.39859225       0.37475748
C        5.21012387       1.34359564      -0.79448388
H        0.80563609      -0.87160792       1.35746876
H        0.82753787       0.09168287      -0.15322690
H        0.50761710       0.87272335       1.41955812
H        3.06095980      -0.49661491       0.83710392
H        2.62985913       1.67653843      -0.50101047
H        1.61208632       2.95780789       1.27435869
H        3.25307942       3.62576307       1.07788979
H        2.84754033       1.50398419       2.84341133
H        5.12148080       1.36236796       1.31622289
H        4.67335271       1.38468034      -1.74634356
H        6.29734682       1.26561707      -0.84200681
