12
Properties=species:S:1:pos:R:3 -1339.5997471589967=T 10.744322=T 10.67134=T -8.9831=T -7.0052=T -8.811=T 0.5336=T -1.0687=T -0.449=T 8.34035=T 0.99968=T 4.4846728088=T 11.4979532974=T 0.55004822=T pbc="F F F"
C        2.66774808      -1.19087335       0.38586769
C        2.19393952       0.04729424       0.16519669
C        2.99018213       1.26041004       0.06821235
C        2.54486503       2.54087784      -0.15639199
O        3.57006835       3.41669756      -0.18356507
N        4.77398157       2.70356667       0.03203706
C        4.40714887       1.44928761       0.17600185
H        1.99331993      -2.04430911       0.44324819
H        3.73224217      -1.39417622       0.51530949
H        1.11522599       0.18322029       0.04386038
H        1.55569502       2.96296789      -0.31034154
H        5.18018334       0.70507653       0.35522492
