19
Properties=species:S:1:pos:R:3 -1817.934607061682=T 11.91079=T 12.96809=T -8.6279=T -6.4835=T -9.965=T 0.8163=T -0.1638=T 2.911=T 9.62662=T -2.64068=T 8.0575649722=T 12.9662822996=T 0.071820062=T pbc="F F F"
C        0.91459567       0.00560886       0.02994530
C        2.43487995       0.01608608       0.02621868
C        3.19988026       1.05175624       0.90145241
C        4.25223738      -0.03236850       1.25547108
N        5.48398776       0.10771187       0.47814551
C        3.21052475      -1.11010920       0.78615827
N        3.73597428      -2.30238088       0.14105888
H        0.51721747      -0.86152329      -0.52091011
H        0.49944651       0.91133157      -0.43855099
H        0.52646952      -0.04399459       1.05993058
H        2.80303467       0.06585505      -1.01442652
H        2.61253610       1.35780756       1.77999293
H        3.58912317       1.95333773       0.40736814
H        4.53723396      -0.10530491       2.31599716
H        5.27493225       0.27590738      -0.51021115
H        6.01397461      -0.76808039       0.52061467
H        2.61700840      -1.43153698       1.65930806
H        4.13267741      -2.06911512      -0.77289180
H        2.99448589      -2.98551848      -0.02645111
