20
Properties=species:S:1:pos:R:3 -1888.1546990926015=T 11.774859=T 13.00392=T -8.9932=T -6.927=T -10.074=T 0.7938=T -0.1481=T 2.975=T 9.28199=T -2.67526=T 7.8683871334=T 10.8911286176=T 0.121716581=T pbc="F F F"
C        3.60373189       1.71636387      -3.64599346
C        4.73469385       1.72029640      -2.62304433
N        4.19563203       1.86321358      -1.26355921
C        5.17349105       1.96781846      -0.15683032
C        6.33274749       0.96548779      -0.17004375
C        5.67200728       3.42326554      -0.11039348
O        4.58007615       4.32951425      -0.17720064
H        4.00225825       1.62232577      -4.66582045
H        3.01680570       2.64320399      -3.58471854
H        2.91980496       0.86999225      -3.47768944
H        5.40168185       2.57548204      -2.81714684
H        5.34789342       0.80553985      -2.74785074
H        3.54383455       1.09907954      -1.07569161
H        4.58021994       1.80888840       0.75952677
H        6.99796953       1.11752561      -1.03249340
H        5.96557512      -0.07109491      -0.19987547
H        6.94022025       1.07811700       0.74038098
H        6.38899340       3.60067077      -0.93978814
H        6.21379187       3.60140186       0.83213494
H        3.92339142       3.83836795      -0.72530288
