18
Properties=species:S:1:pos:R:3 -1787.5353673986958=T 11.671611=T 12.82024=T -8.4805=T -6.4497=T -9.648=T 0.9777=T 0.08=T 2.85=T 9.13503=T -2.54571=T 7.72370787=T 11.6421862112=T 0.107053789=T pbc="F F F"
C       -1.65712626       0.62843987       0.26722505
C       -1.59868298      -0.85819556      -0.25708803
C       -0.11228822      -0.80801579       0.19098712
N        1.18523084      -1.30521576      -0.27957539
C        2.07555350      -0.19161701       0.22644536
C        1.20011916       1.11014388       0.56054598
C       -0.12679011       0.68534812      -0.04967230
H       -2.31491404       1.33024709      -0.26089800
H       -1.87323227       0.65957059       1.34509812
H       -1.71184808      -0.88559926      -1.35137021
H       -2.25758818      -1.60587662       0.20356356
H       -0.12734362      -0.97093133       1.28682117
H        1.18653879      -1.25767316      -1.30412874
H        2.57863007      -0.53661135       1.14150424
H        2.85487172       0.01866246      -0.51907375
H        1.13000606       1.24275565       1.65046826
H        1.64352790       2.01992398       0.13145899
H       -0.06456427       0.82428420      -1.14631142
