15
Properties=species:S:1:pos:R:3 -1553.8412374908742=T 10.156234=T 10.88536=T -8.8333=T -6.7042=T -9.131=T 0.9536=T 0.0046=T 1.125=T 8.68673=T -0.5721=T 6.0081259866=T 0.280139413=T pbc="F F F"
C        1.02415413       0.21699001      -0.01553840
C        2.51928898      -0.06375605       0.14306415
O        3.31752061       1.10170975      -0.20873531
C        3.64242264       1.11315663      -1.57079413
O        4.51028208       0.02800410      -1.94833861
C        3.99608947      -1.16741018      -1.52180341
C        3.01921705      -1.26828476      -0.60500436
H        0.73769405       1.08999151       0.58676538
H        0.43820019      -0.64958126       0.32407168
H        0.76377354       0.40474768      -1.06675671
H        2.73849816      -0.20307421       1.21622493
H        4.19680852       2.03682371      -1.77122832
H        2.73723376       1.03722638      -2.20418060
H        4.47019508      -2.01844107      -2.01226065
H        2.63420175      -2.25210226      -0.33766564
