12
Properties=species:S:1:pos:R:3 -1255.5244995681762=T 11.066096=T 11.23936=T -9.5393=T -7.5703=T -10.668=T -0.4206=T -2.2329=T -0.835=T 10.26209=T 1.25079=T 4.320106191=T 6.6126445268=T 0.354611465=T pbc="F F F"
N        1.68074995       1.17285446      -1.88001955
C        2.59579496       1.00864557      -1.17176953
C        3.65219942       0.78213992      -0.23482962
N        4.87364374       0.96808929      -0.59593016
N        5.76960769       0.68624842       0.48675513
C        7.05360222       0.16713734      -0.08803971
C        6.97096846       1.57254900       0.34668320
H        3.37792522       0.45191062       0.77664933
H        7.04678973      -0.03006338      -1.16062736
H        7.52468940      -0.58630252       0.54339007
H        7.37933360       1.88513954       1.30784043
H        6.90753562       2.33717175      -0.42838222
