11
Properties=species:S:1:pos:R:3 -1325.6904106057614=T 11.04887=T 11.35454=T -8.6967=T -6.6927=T -8.291=T 0.8891=T -0.6677=T 0.139=T 7.78082=T 0.47479=T 4.1152317246=T 6.2928350384=T 0.596643898=T pbc="F F F"
C        0.89991571       0.04194318      -0.00365171
C        2.11619417       0.02826495      -0.00194248
C        3.53012204      -0.00497888       0.00135596
C        4.38494179       1.07499465       0.00280606
O        5.68319362       0.65970678       0.00585753
C        5.66203735      -0.71487158       0.00648846
C        4.38039439      -1.17363547       0.00376805
H       -0.17038555       0.05693211      -0.00540206
H        4.21792841       2.14580917       0.00195733
H        6.63226688      -1.19835944       0.00888739
H        4.05331119      -2.20791546       0.00350548
