18
Properties=species:S:1:pos:R:3 -1743.713988548747=T 11.809554=T 12.64053=T -9.1449=T -7.0141=T -9.531=T 0.9841=T -0.1309=T 1.318=T 9.01236=T -0.75371=T 6.6587053258=T 0.447244047=T pbc="F F F"
C        1.23097125       0.01322564       0.69201561
N        2.66805637       0.05856497       0.42669979
C        3.11353676       1.30129011      -0.20499670
C        4.65690520       1.32433248      -0.20292869
O        5.12537127       1.07616886       1.11756262
C        5.21259978       0.35919314      -1.22781040
C        6.01609608      -0.67275840      -0.95075858
H        0.97001228      -0.95865900       1.13272582
H        0.60232313       0.16893856      -0.20790813
H        0.97041407       0.79348042       1.42286326
H        2.93803058      -0.73100288      -0.16705636
H        2.75147376       2.13889025       0.41251850
H        2.72289660       1.44940787      -1.23358323
H        4.98207349       2.34425163      -0.48034372
H        4.44708558       0.46727941       1.49031128
H        4.91151040       0.55877735      -2.26357152
H        6.33980912      -0.86119267       0.07450576
H        6.38188429      -1.33464772      -1.73651533
