12
Properties=species:S:1:pos:R:3 -1355.9030647728964=T 11.174101=T 11.24796=T -10.1073=T -8.1136=T -10.372=T -1.3683=T -3.1213=T -1.779=T 9.83106=T 2.1714=T 3.2353154812=T 4.7910422148=T 0.599356786=T pbc="F F F"
C        0.92715445       0.15046568      -0.07893635
C        2.42118728      -0.03959027      -0.05856395
C        3.10413626      -1.20980781       0.06791463
C        2.49389326      -2.53783795       0.21143781
O        3.16217094      -3.55826727       0.32018003
C        3.18176583       1.16789960      -0.18954086
N        3.76538890       2.17610696      -0.29576775
H        0.62608756       0.82514598       0.73559618
H        0.38121884      -0.79116556       0.02303492
H        0.62622187       0.63493495      -1.01897824
H        4.19609385      -1.20088918       0.06654155
H        1.37954097      -2.58928514       0.21848203
