12
Properties=species:S:1:pos:R:3 -1378.1871123512196=T 11.897021=T 12.80945=T -10.2683=T -8.0914=T -9.674=T -0.0538=T -1.761=T -0.295=T 9.24232=T 0.81632=T 4.3657826334=T 10.7490406616=T 0.99253277=T pbc="F F F"
C        0.93326862      -0.08400327      -0.08803863
C        2.14326905      -0.04075041      -0.01854731
C        3.59993226       0.03889220       0.05785629
C        4.09732550       1.45963029       0.01837920
C        4.91671022       1.98628796       0.94643215
C        5.39732886       3.32446413       0.88694077
N        5.81314550       4.41786877       0.86436403
H       -0.13562733      -0.12996912      -0.13815508
H        4.03066321      -0.51229704      -0.79839473
H        3.95963725      -0.46713042       0.96819105
H        3.76129514       2.07452551      -0.82007261
H        5.25378173       1.39359140       1.80184486
