17
Properties=species:S:1:pos:R:3 -1604.6071556392817=T 11.319315=T 12.07689=T -9.1351=T -7.1562=T -10.162=T 0.8296=T -0.1211=T 0.972=T 9.48472=T -0.38318=T 4.9657508874=T 6.5869670262=T 0.173125448=T pbc="F F F"
C        6.51157861       1.47606938       3.07729404
C        6.85548627       2.14524296       1.76179443
O        5.74583841       3.01151262       1.42208198
N        6.05168249       3.70946138       0.22001873
C        6.04080195       5.11704305       0.36452328
C        6.02536058       5.82587910      -0.96560068
N        6.10832358       5.76318870       1.46877209
H        7.32709135       0.80095472       3.37048517
H        5.58935438       0.88546383       2.99115392
H        6.37628133       2.21908286       3.87511921
H        6.99658598       1.40281319       0.95737531
H        7.77492049       2.74869324       1.83895974
H        5.40867246       3.37462797      -0.50492698
H        5.06541654       5.67298320      -1.48276901
H        6.82551648       5.45930330      -1.62373397
H        6.16005623       6.89733691      -0.78812758
H        6.06862285       5.09417359       2.25244033
