12
Properties=species:S:1:pos:R:3 -1256.1969818908833=T 10.424794=T 11.29208=T -9.6237=T -7.6504=T -10.163=T 0.4572=T -1.2692=T -0.433=T 9.74378=T 1.03199=T 3.6280907306=T 10.618285026=T 0.280210246=T pbc="F F F"
C        0.95500211      -0.03630938       0.02039736
C        2.40372431       0.01680984       0.05078131
C        3.61981480       0.06603076       0.07783592
C        5.05917113      -0.02047446       0.14524217
O        5.67789814      -1.07312146       0.29311721
N        5.75071524       1.17533900      -0.05894835
O        5.09294885       2.39309656       0.25542757
H        0.52299928       0.66352404       0.75094714
H        0.59039509      -1.04735909       0.25266153
H        0.57698152       0.24246343      -0.97443485
H        6.70078660       1.16462752       0.32033389
H        4.95372291       2.81047324      -0.61658089
