12
Properties=species:S:1:pos:R:3 -1358.4835079853337=T 10.274598=T 10.5718=T -9.5626=T -7.5558=T -9.59=T -1.4321=T -3.2543=T -1.889=T 9.01594=T 2.2366=T 2.7688057576=T 6.7774591166=T 0.697161582=T pbc="F F F"
C        1.02283449       0.04640892       0.00592596
C        2.49266203      -0.11325304       0.00387661
C        3.26682202      -1.22015596      -0.00075791
C        4.66700502      -0.75191535      -0.00061116
O        5.71629696      -1.37590826      -0.00363243
C        4.51475273       0.78278183       0.00538376
N        3.28389192       1.14038367       0.00765007
H        0.50094744      -0.91681789       0.00172150
H        0.71251489       0.63846691      -0.86988289
H        0.71403196       0.62982036       0.88808460
H        2.95651859      -2.26029164      -0.00421228
H        5.34976194       1.48740045       0.00710416
