19
Properties=species:S:1:pos:R:3 -1875.0859939172292=T 12.198798=T 13.24936=T -9.518=T -7.3921=T -9.546=T 1.3295=T -0.1429=T 1.268=T 8.98106=T -0.69218=T 6.6163641068=T 0.439218936=T pbc="F F F"
C        3.36990795      -1.12903907      -0.52616988
C        2.67227992      -0.10720889       0.36531175
O        2.66093144      -0.53233292       1.74029388
C        3.24038856       1.33361847       0.20558923
C        2.33023549       2.35110098       0.91247182
C        4.65334304       1.44508407       0.71308449
C        5.73697541       1.67705611      -0.03774270
H        3.28177083      -0.85208323      -1.58721615
H        2.91802966      -2.12077934      -0.38852065
H        4.44362365      -1.19324584      -0.28871969
H        1.60395017      -0.06289675       0.09224540
H        3.57211518      -0.78867253       1.97071518
H        3.24535897       1.55051367      -0.87782129
H        2.26108530       2.12454331       1.98615863
H        1.31268134       2.31785074       0.49501538
H        2.71638103       3.37312706       0.79625638
H        4.77575947       1.34793991       1.79961048
H        5.66573627       1.80222436      -1.12166267
H        6.73126632       1.75944990       0.40478041
