17
Properties=species:S:1:pos:R:3 -1740.620040954026=T 10.783488=T 11.91471=T -9.3493=T -7.1306=T -10.66=T 0.8817=T -0.0268=T 3.02=T 10.40736=T -2.81685=T 8.6190851676=T 10.7466229346=T 0.178658514=T pbc="F F F"
C        0.73971370       0.01372117       0.04643870
C        2.25185107       0.01578252       0.13504414
C        3.15746070      -0.85542838      -0.71371269
C        2.60992201      -1.41964369      -2.00937565
O        2.00024406      -0.32384903      -2.71656622
C        2.62245596       0.90125433      -2.28679112
C        3.16557369       0.65253612      -0.89394839
H        0.32899115       0.95832996       0.43439136
H        0.31869697      -0.80209591       0.65359997
H        0.38634380      -0.11247282      -0.98495776
H        2.62588527       0.13601460       1.15660712
H        3.99755998      -1.37199314      -0.24659190
H        3.43514961      -1.86300129      -2.60106951
H        1.82703516      -2.18473990      -1.87984972
H        3.45155987       1.18384181      -2.96532162
H        1.84784381       1.68351757      -2.34227198
H        4.01173318       1.25568607      -0.56071474
