11
Properties=species:S:1:pos:R:3 -1038.8326648333823=T 6.871757=T 7.32674=T -9.4977=T -7.2323=T -11.022=T 1.0285=T 0.0501=T 3.288=T 10.36341=T -3.01842=T 8.920296756=T 11.7049851202=T 0.236132268=T pbc="F F F"
C        0.98909835      -0.01720793      -0.04517693
C        2.49420109      -0.09991398       0.00438007
C        3.28601456      -0.72566762      -1.08907263
N        3.23164365       0.75027181      -0.95872717
H        0.62270483       0.85063222       0.52333892
H        0.53124630      -0.92277830       0.38060235
H        0.64825531       0.09153199      -1.08393939
H        2.92246582      -0.19130256       1.00933167
H        2.76649765      -1.11949691      -1.96683142
H        4.21012360      -1.24796736      -0.82816295
H        4.10072883       1.08471866      -0.53085251
