19
Properties=species:S:1:pos:R:3 -1829.1398162859546=T 12.356658=T 13.14927=T -8.5743=T -6.6511=T -9.586=T 0.7108=T -0.2259=T 1.002=T 8.77332=T -0.45667=T 5.0144029938=T 6.0808437756=T 0.210072797=T pbc="F F F"
C        1.02861864      -0.32705059      -0.10104128
C        2.55538518      -0.44886121       0.00464851
C        2.90821619      -1.43355507       1.13191908
C        3.13778934      -0.93630920      -1.33654526
N        3.06149905       0.90555179       0.34109374
C        4.38903676       1.19397426       0.58313228
N        4.99224942       2.33174719       0.56719422
H        0.74290163       0.38487574      -0.89129015
H        0.59758690       0.01611314       0.85010892
H        0.58374523      -1.29919471      -0.35379985
H        2.53248170      -1.06580861       2.09666115
H        3.99197905      -1.58947627       1.22044813
H        2.45216934      -2.41264654       0.92769614
H        2.88018471      -0.24082787      -2.14879746
H        2.74438286      -1.92989331      -1.59818395
H        4.23384709      -1.00595120      -1.28624483
H        2.52707811       1.66871381      -0.07431189
H        4.98031622       0.31358682       0.86984954
H        4.34752258       3.08844183       0.28693294
