17
Properties=species:S:1:pos:R:3 -1597.6446626982718=T 9.932782=T 10.68781=T -9.6131=T -7.3791=T -10.707=T 0.7582=T -0.2481=T 2.76=T 10.01155=T -2.45992=T 8.354300666=T 10.604212615=T 0.075887564=T pbc="F F F"
C        0.98472747       0.01910178      -0.05654240
C        2.51219651       0.00495242       0.09687044
C        2.92184108      -0.75770574       1.36212996
N        3.20872204      -0.61937141      -1.05814622
C        3.04661488       1.45690852       0.15090064
O        4.46591292       1.49495956       0.12617049
H        0.68595960       0.53577697      -0.98207163
H        0.50198729       0.53760920       0.78692997
H        0.58633544      -1.00616402      -0.09321027
H        2.43919302      -0.32081667       2.24745304
H        4.00946471      -0.71115241       1.50494206
H        2.61653979      -1.81392978       1.29946686
H        2.75847697      -0.33470112      -1.93306118
H        3.13513098      -1.63846412      -1.00971013
H        2.71289351       1.95258612       1.07618651
H        2.61932743       2.02167184      -0.70535433
H        4.69860635       0.77095884      -0.49880378
