13
Properties=species:S:1:pos:R:3 -1462.839628968814=T 11.214306=T 11.02573=T -7.5522=T -5.4921=T -7.749=T -0.2643=T -1.8943=T -0.336=T 7.44735=T 0.86989=T 3.1091473276=T 6.351058864=T 0.750582247=T pbc="F F F"
O        0.93903189      -1.34527925      -0.00948031
C       -0.44233488      -1.50225980      -0.00100339
C       -1.44862200      -0.61335307       0.00188146
C       -1.42413467       0.85485808      -0.00213765
C       -0.32101336       1.62752460      -0.00192402
C        1.06715171       1.14872306       0.00238893
C        1.55866064      -0.10074780      -0.00059282
H       -0.65296966      -2.57219201       0.00260097
H       -2.43525005      -1.08073505       0.00783959
H       -2.39971144       1.34497957      -0.00482344
H       -0.44816750       2.71186909      -0.00444106
H        1.84360046       1.91619482       0.00871075
H        2.63614887      -0.26847224       0.00328100
