18
Properties=species:S:1:pos:R:3 -1793.049287954278=T 12.348708=T 13.40371=T -9.2502=T -7.071=T -9.228=T 0.8945=T -0.0102=T 1.362=T 8.60051=T -0.72007=T 6.4017939352=T 0.441771114=T pbc="F F F"
C        2.83649416      -1.09000988      -1.30953284
C        2.63250629      -0.45046297       0.03908103
C        1.87481249      -1.02157657       0.98825100
C        3.32239927       0.87570377       0.27555551
C        4.83861680       0.79038636       0.24084444
C        5.63116033       1.03258197      -0.99672502
N        5.55560746       2.07121197       0.05509729
H        2.51647920      -0.41140872      -2.11738456
H        2.27194396      -2.02698251      -1.40107299
H        3.90104736      -1.30845811      -1.48850196
H        1.37107042      -1.97557275       0.81859240
H        1.73021832      -0.54854795       1.96184644
H        3.01361236       1.28351439       1.25106695
H        3.00938755       1.60760590      -0.48962020
H        5.26818904       0.07541415       0.95214577
H        5.11349112       1.29290619      -1.92393661
H        6.56363917       0.47804263      -1.13047089
H        6.42046470       2.06623213       0.60451425
