19
Properties=species:S:1:pos:R:3 -1834.324351511947=T 11.774204=T 12.74904=T -8.8716=T -6.7046=T -10.176=T 0.8292=T -0.1625=T 3.121=T 9.6248=T -2.81244=T 8.262489033=T 11.5562763118=T 0.110806799=T pbc="F F F"
N        1.08929996      -0.01194245      -0.23891488
C        2.54129300       0.03564635      -0.03689796
C        2.97159378       1.15465533       0.91620413
C        4.37201253       0.72251330       1.42906044
C        4.48406484      -0.79470525       1.12214488
C        3.07805940      -1.22808691       0.67192920
N        3.08982698      -2.49138101      -0.06571855
H        0.86256154      -0.71818632      -0.94510600
H        0.76097595       0.87702291      -0.62493956
H        3.11099374       0.14019100      -0.98980515
H        2.24408074       1.19246132       1.74354173
H        2.97819128       2.14671617       0.44030862
H        5.17024820       1.28396544       0.92264468
H        4.47670269       0.92996708       2.50329753
H        5.19340485      -0.97345445       0.29697441
H        4.83703462      -1.38918432       1.97506154
H        2.43757630      -1.38168256       1.55937735
H        3.56317052      -2.37158830      -0.96680796
H        2.13624908      -2.80381735      -0.26261445
