17
Properties=species:S:1:pos:R:3 -1766.0636756106705=T 12.770574=T 13.717=T -9.6291=T -7.4841=T -9.418=T 0.8976=T 0.055=T 1.295=T 8.93085=T -0.67674=T 4.314402835=T 10.5954344062=T 0.648081938=T pbc="F F F"
C        0.97083451       0.00330543       0.13588740
C        2.51620663      -0.01931933      -0.00598880
C        3.13371355      -0.76167715       1.20901560
C        2.87766915      -0.77704861      -1.27638642
C        3.55652273      -0.30638655      -2.32543164
C        3.01665833       1.35925900      -0.03197118
C        3.42027073       2.50440356      -0.03060195
H        0.51246694       0.53275627      -0.70922907
H        0.67970201       0.50750737       1.06760912
H        0.58210866      -1.02540767       0.15835954
H        2.85357212      -0.26072021       2.14582731
H        4.22856933      -0.78217959       1.13449210
H        2.76445154      -1.79726192       1.24192330
H        2.51889645      -1.81298210      -1.28020325
H        3.92503539       0.72126447      -2.34676491
H        3.76125959      -0.93847831      -3.19021140
H        3.77439235       3.51493533      -0.02560576
