12
Properties=species:S:1:pos:R:3 -1379.8141847617358=T 12.117347=T 13.28187=T -9.3638=T -7.309=T -8.909=T 0.3292=T -1.3399=T 0.283=T 8.48392=T 0.26222=T 3.8858080302=T 6.0412550458=T 0.462407302=T pbc="F F F"
C        0.91464761      -0.02339040      -0.00001989
C        2.25915553       0.04748887       0.00000235
C        3.00025173       1.25645440       0.00000152
C        3.67399257       2.27075500       0.00000073
C        4.47778042       3.48842444      -0.00000018
C        3.67441194       4.71768388      -0.00000006
N        3.05677175       5.70576401       0.00000004
H        0.40965378      -0.98874125       0.00001459
H        0.29789915       0.87576366       0.00001937
H        2.84952210      -0.87452842       0.00000272
H        5.13947614       3.51359762      -0.88300406
H        5.13947728       3.51359820       0.88300286
