15
Properties=species:S:1:pos:R:3 -1587.5884877216217=T 9.728119=T 10.8091=T -9.898=T -7.8329=T -11.207=T 0.902=T -0.3053=T 0.244=T 10.20396=T 0.4143=T 4.3497884394=T 11.7351385154=T 0.130731451=T pbc="F F F"
C        0.95419737      -0.02100193       0.02256037
C        2.47662411       0.06424455       0.03239680
C        3.10395488       1.19502477       0.85541388
C        4.47385865       0.61437129       1.21605043
O        4.27923648      -0.82338531       1.30367892
C        3.13993649      -1.18487587       0.62223450
O        2.78141826      -2.33595550       0.53641352
H        0.62705050      -0.93538494      -0.48926935
H        0.51553120       0.84518603      -0.49113026
H        0.55906674      -0.04952076       1.04848802
H        2.84539110       0.12069658      -1.00940374
H        2.50956542       1.36418972       1.76737059
H        3.18225388       2.14770057       0.31553748
H        5.22820034       0.81026024       0.43661554
H        4.86474458       0.95023058       2.18447330
