11
Properties=species:S:1:pos:R:3 -1259.2391740982703=T 10.003618=T 9.76124=T -9.0267=T -7.1284=T -9.328=T -0.5617=T -2.2605=T -0.96=T 8.94767=T 1.45721=T 3.9469331282=T 4.4838792984=T 0.357989428=T pbc="F F F"
C        1.04195374      -0.01761600      -0.10800482
C        2.37031323      -0.04670128       0.09864787
N        3.15162595      -1.20386748       0.30139582
C        4.36674061      -0.76808836       0.45670819
N        4.51712734       0.60915743       0.38126688
C        3.25020566       1.17985157       0.14638395
O        2.99692067       2.36700258       0.02309619
H        0.54071125       0.93887919      -0.25329586
H        0.46078718      -0.93849817      -0.13163628
H        5.22931588      -1.41106271       0.63517568
H        5.37783846       1.13960322       0.47591237
