20
Properties=species:S:1:pos:R:3 -1934.3448654489391=T 12.340635=T 13.92094=T -9.3649=T -7.19=T -10.96=T 0.9172=T 0.0172=T 3.009=T 10.28453=T -2.7255=T 8.8655197412=T 11.5257881544=T 0.251231866=T pbc="F F F"
C        0.64134422      -0.26646678       0.30297790
C        2.05923079      -0.40074342      -0.25559732
C        2.94803677       0.80129996       0.08428191
C        4.36404209       0.74494424      -0.50633038
C        5.22667724      -0.36425186       0.05612983
C        5.36846102      -1.69301417      -0.60152048
N        6.45386364      -0.69093782      -0.70531456
H        0.02133961      -1.13761148       0.04658489
H        0.13987884       0.62921381      -0.09543991
H        0.65286579      -0.17699207       1.40041662
H        2.01446887      -0.51646007      -1.35273652
H        2.52146528      -1.32408906       0.12998291
H        3.01352356       0.90363412       1.18306396
H        2.45470086       1.72165902      -0.27261511
H        4.87366113       1.70505345      -0.31814922
H        4.31866069       0.63113151      -1.60231601
H        5.31017947      -0.36735617       1.15051506
H        4.84125146      -1.88437276      -1.54011606
H        5.51662557      -2.57284193       0.03049064
H        7.20894311      -0.93678852      -0.05796815
