13
Properties=species:S:1:pos:R:3 -1378.8976803412104=T 9.83175=T 10.23075=T -8.7727=T -6.8859=T -9.522=T 0.7378=T -1.0375=T -0.147=T 8.93794=T 0.71082=T 4.3996308114=T 9.3790325574=T 0.180555282=T pbc="F F F"
C        1.09099967      -0.01340583      -0.12681843
N        2.51593701       0.03133552       0.11755776
N        3.23689266      -1.14584976       0.28417847
C        4.47448322      -0.81927853       0.48966767
C        4.70169824       0.65655511       0.47935851
C        3.28760483       1.18374679       0.21476367
O        2.88860602       2.33602775       0.10709445
H        0.75493165       1.02426957      -0.23680504
H        0.56707951      -0.48489458       0.71617561
H        0.87397932      -0.57340306      -1.04672043
H        5.21818569      -1.59917951       0.64593407
H        5.08865584       1.04944916       1.43160615
H        5.39236633       0.99052735      -0.30950246
