17
Properties=species:S:1:pos:R:3 -1757.088339213471=T 10.553933=T 11.56024=T -9.1218=T -6.9926=T -11.157=T 0.91=T -0.0076=T 2.992=T 10.52679=T -2.70718=T 9.0914842262=T 11.5405052926=T 0.119027127=T pbc="F F F"
C       -1.26387513      -0.79343558      -0.51870840
C       -1.23739402       0.77005377      -0.53278894
C        0.00939300       1.07401304       0.31882902
C       -0.02758979      -0.02666187       1.38580147
C       -0.01265522      -1.14572627       0.32184577
C        1.22642825      -0.72336845      -0.47928652
O        1.18539531       0.73257430      -0.46087176
H       -1.21406534      -1.22685826      -1.52812011
H       -2.17577318      -1.17600931      -0.03708856
H       -2.14456056       1.20359128      -0.08464444
H       -1.12221990       1.18872684      -1.54139400
H        0.12187801       2.11278669       0.65307885
H       -0.94364309      -0.01991184       1.99350366
H        0.85768944      -0.01680287       2.03634374
H        0.02518525      -2.17965960       0.68857435
H        2.16832706      -1.06175183      -0.01305746
H        1.19975992      -1.07721002      -1.52376668
