15
Properties=species:S:1:pos:R:3 -1571.5902673655162=T 11.60704=T 12.02734=T -7.7316=T -5.7774=T -8.294=T 0.9196=T -0.1575=T 0.914=T 7.80385=T -0.32663=T 4.8619002138=T 11.1649516986=T 0.37008468=T pbc="F F F"
C        0.97370979       0.00183947       0.12340237
C        2.45634442       0.00050841      -0.03527432
C        3.28247628      -1.05933705      -0.13152423
N        4.63359987      -0.65976786      -0.21131185
C        4.73441143       0.73552959      -0.27649291
N        5.76269218       1.48270635      -0.45852964
C        3.30917128       1.24974513      -0.07948836
H        0.57020460      -1.02014439       0.12452366
H        0.48069610       0.55855176      -0.69111138
H        0.66580966       0.48575018       1.06573889
H        3.03508612      -2.11930524      -0.11920366
H        5.38097261      -1.27445249      -0.51588729
H        6.62072060       0.92418306      -0.56464635
H        3.03726820       1.93786748      -0.89558335
H        3.24893686       1.83424559       0.85386842
