15
Properties=species:S:1:pos:R:3 -1602.6069970979981=T 12.094754=T 12.46385=T -9.2381=T -7.2804=T -9.724=T -0.0849=T -1.7218=T -0.795=T 9.35146=T 1.39645=T 3.4548822886=T 5.0012108834=T 0.58345755=T pbc="F F F"
O        0.40853823       1.57968355       0.19518522
C        1.58587682       1.23734307       0.18502197
C        2.72060573       2.14141659       0.01480703
C        3.98556360       1.65994897       0.02578964
C        5.23631712       2.41447122      -0.12933659
C        5.30478983       3.61971474      -1.07122467
C        5.35590570       3.84405005       0.40185136
H        1.87158838       0.15876737       0.31424321
H        2.48544680       3.20179315      -0.11735215
H        4.09931948       0.57731999       0.16343584
H        6.14585097       1.81559473      -0.07061319
H        4.38493675       3.86395671      -1.60333863
H        6.22016375       3.73458173      -1.65197661
H        6.30736537       4.11759416       0.85777722
H        4.47213146       4.24771398       0.89700036
