12
Properties=species:S:1:pos:R:3 -1329.6387808525392=T 12.666069=T 13.79539=T -8.7511=T -6.654=T -8.323=T 1.3807=T -0.2392=T 1.194=T 7.9832=T -0.74927=T 3.11018881=T 7.7210669682=T 2.108469915=T pbc="F F F"
C        0.96460821      -0.00003443      -0.00001045
C        2.41454680       0.00003394      -0.00000935
C        3.63829337       0.00009020      -0.00000295
C        4.99802686       0.00009020       0.00000295
C        6.22177344       0.00003394       0.00000935
C        7.67171171      -0.00003443       0.00001045
H        0.56722948       1.02652871       0.01175043
H        0.56725583      -0.52347289       0.88315389
H        0.56723862      -0.50312553      -0.89491155
H        8.06909039       1.02652871      -0.01175043
H        8.06906404      -0.52347289      -0.88315389
H        8.06908125      -0.50312553       0.89491155
