18
Properties=species:S:1:pos:R:3 -1745.7743993209601=T 11.291524=T 12.48527=T -8.546=T -6.4183=T -9.887=T 0.7802=T -0.1927=T 3.053=T 9.4916=T -2.73334=T 7.8495660586=T 10.6913499758=T 0.177890226=T pbc="F F F"
C        0.98452268       0.15226995      -0.15260736
C        2.49368841       0.08570987      -0.06963251
C        3.32427270      -0.58964494      -1.16273262
O        2.70543903      -1.05693909      -2.34131213
C        3.43057272       0.89780522      -0.97930577
C        2.85274115       1.82239743      -2.02850543
N        4.70277226       1.39268006      -0.46671099
H        0.59710359       1.07522749       0.30538471
H        0.52328999      -0.69549124       0.37825365
H        0.63310115       0.12103623      -1.19225169
H        2.88526755      -0.06698548       0.94214377
H        4.19043738      -1.18550610      -0.84393322
H        2.24670780      -1.88783563      -2.12428106
H        1.96863738       1.39427751      -2.51265515
H        3.61066796       2.01426346      -2.80053741
H        2.57031972       2.78759872      -1.57876035
H        5.13371531       0.69792703       0.14836665
H        4.53565321       2.22101953       0.11406692
