19
Properties=species:S:1:pos:R:3 -1783.0194703152174=T 11.383228=T 12.49476=T -8.5491=T -6.4716=T -10.019=T 0.9425=T 0.0204=T 3.305=T 9.26874=T -3.02882=T 8.0954922896=T 11.6840438848=T 0.170065838=T pbc="F F F"
C        1.13167062      -0.22172898      -0.50805970
C        2.65359121      -0.18574829      -0.42122796
N        3.14536183       1.19429488      -0.46115926
C        4.58096334       1.34548011      -0.17368344
C        5.42621171       0.83734683      -1.34567862
C        4.87476037       2.81921072       0.10909652
H        0.76462740      -1.25745395      -0.52129009
H        0.78338639       0.28433941      -1.41963461
H        0.67267440       0.28229392       0.35732876
H        3.07826147      -0.73349622      -1.27789181
H        2.98924788      -0.72469980       0.49396238
H        2.62350516       1.73614837       0.23469628
H        4.86507334       0.75560429       0.72953812
H        5.17346563       1.39149791      -2.26225941
H        5.26487257      -0.23264007      -1.53639959
H        6.49609862       0.97682913      -1.13358920
H        4.61584287       3.43503837      -0.76543097
H        5.93921031       2.96810735       0.33785951
H        4.29287489       3.18401602       0.96988308
