21
Properties=species:S:1:pos:R:3 -1954.4848340319868=T 12.73357=T 14.00474=T -8.5174=T -6.4096=T -9.975=T 0.9183=T -0.0343=T 3.242=T 9.29284=T -2.95088=T 8.1646144846=T 10.8794491364=T 0.158894964=T pbc="F F F"
C        1.07145562      -0.13825866       0.03031918
C        2.58731736      -0.03462542      -0.09382773
N        3.03906070       1.34959696       0.07033718
C        4.49845525       1.47853596       0.06631266
C        4.93320065       2.95448501       0.04304839
C        4.70371971       3.59998047      -1.33025097
N        4.26852822       3.66340234       1.15797854
H        0.73539220      -1.17167677      -0.13398155
H        0.57611398       0.51236654      -0.70402781
H        0.73423805       0.16368145       1.03421629
H        2.90234423      -0.37279315      -1.09588024
H        3.06822417      -0.72583996       0.63423938
H        2.70772075       1.68652814       0.98037479
H        4.88268258       0.97734476      -0.83804045
H        4.96720539       0.97992280       0.94132562
H        6.01397256       2.96693603       0.26562032
H        3.64019342       3.53558345      -1.60492859
H        5.28706682       3.09377347      -2.11549359
H        5.00002399       4.65940995      -1.32025251
H        3.31499620       3.90322422       0.86706918
H        4.73584817       4.55821242       1.32009189
