11
Properties=species:S:1:pos:R:3 -1270.8636821183468=T 12.528404=T 13.1286=T -9.3923=T -7.2952=T -8.857=T 0.3659=T -1.2947=T 0.682=T 8.4671=T -0.26932=T 3.1926890944=T 7.8313773124=T 2.19391979=T pbc="F F F"
C        0.94209765       0.03062870      -0.03039538
C        2.16257324      -0.00062824      -0.02833197
C        3.51913876      -0.03917854      -0.02540536
C        4.74288519      -0.07213987      -0.02813741
C        6.17377057      -0.11263380       0.01493300
C        6.96247423      -0.80487484      -1.03512297
O        6.90021849       0.62544446      -1.00639434
H       -0.12783760       0.06068458      -0.03164891
H        6.61692503      -0.03635927       1.01480458
H        6.42688463      -1.28237031      -1.86117309
H        7.92704982      -1.24310287      -0.75727817
