18
Properties=species:S:1:pos:R:3 -1788.271751563275=T 12.920495=T 13.97314=T -8.7612=T -6.7858=T -9.328=T 1.4787=T -0.0091=T 1.239=T 8.83796=T -0.65387=T 6.4722303818=T 0.531589779=T pbc="F F F"
C        2.51971510      -1.00641888      -0.34935516
C        2.22500528       0.42487180       0.08557349
N        3.44790724       1.23532502       0.07169420
C        3.75662438       1.89228031      -1.19530276
C        3.24230678       2.69410170      -0.03056804
C        4.12085952       3.56642450       0.77301772
C        3.75919743       4.76021093       1.26134059
H        1.60837661      -1.61931623      -0.30532971
H        3.27747642      -1.46028405       0.30396836
H        2.89867831      -1.03553143      -1.38161059
H        1.83663517       0.43678854       1.11683846
H        1.43866834       0.86514899      -0.56571828
H        3.06325656       1.75502517      -2.03373558
H        4.81439199       1.94075613      -1.46527872
H        2.20261781       3.03353298      -0.12882110
H        5.12734600       3.17684209       0.95744818
H        2.75778099       5.16543517       1.09540689
H        4.45194606       5.37297726       1.83849204
