5
Properties=species:S:1:pos:R:3 -420.9337343048892=T 2.534576=T 2.43222=T -14.1341=T -10.9488=T -16.013=T 1.087=T 0.1323=T 4.162=T 15.72523=T -3.98613=T 36.7680730972=T 39.6946262426=T 0.621841405=T pbc="F F F"
C        0.99813803      -0.00263872      -0.00464602
H        2.09441750      -0.00242373       0.00417336
H        0.63238996       1.03082951       0.00417296
H        0.62561232      -0.52974905       0.88151021
H        0.64010219      -0.50924801      -0.90858051
