12
Properties=species:S:1:pos:R:3 -1333.2398314879888=T 11.952149=T 11.57979=T -8.5891=T -6.7798=T -9.222=T 0.0437=T -1.5854=T -0.876=T 8.92342=T 1.62139=T 3.4096026014=T 10.931721634=T 0.351391107=T pbc="F F F"
N        0.92946264      -0.03208930       0.08771225
C        2.27970526       0.01233157      -0.06043445
C        3.06394602       1.12183434       0.05237218
C        4.50817676       1.08551227      -0.09080117
O        5.22716036       2.09033254       0.00339859
C        5.13197254      -0.21273714      -0.36228417
C        5.71096737      -1.25870471      -0.58593220
H        0.41569221      -0.87313298      -0.14119062
H        0.39357692       0.82289198       0.19270383
H        2.74984840      -0.95302129      -0.26699791
H        2.63728410       2.10664415       0.25692737
H        6.24050742      -2.16965143      -0.78034370
