13
Properties=species:S:1:pos:R:3 -1405.7010727630575=T 10.166312=T 10.37391=T -7.7587=T -5.8284=T -7.764=T 0.8204=T -0.0788=T 1.131=T 7.2874=T -0.53403=T 4.6942463446=T 6.317396665=T 0.43054969=T pbc="F F F"
C        0.95489302      -0.02558562      -0.00835448
C        2.44569574       0.05921051      -0.00016414
C        3.30007529       1.15184203       0.00424244
C        4.64109103       0.66667759       0.01040739
C        4.58026933      -0.71417327       0.00962013
N        3.24533752      -1.06880496       0.00319162
H        0.52706414       0.98468337      -0.00059882
H        0.56279539      -0.55691940       0.87405429
H        0.57135125      -0.53973631      -0.90464541
H        2.98411070       2.19154348       0.00311767
H        5.55009837       1.26080830       0.01506197
H        5.36135368      -1.46696731       0.01345690
H        2.89812454      -2.02123840       0.00145044
