14
Properties=species:S:1:pos:R:3 -1393.6485370433286=T 8.605536=T 9.56201=T -9.8102=T -7.5425=T -11.521=T 1.0232=T 0.0926=T 3.118=T 10.93088=T -2.85355=T 9.2570303334=T 13.2267148926=T 0.144115809=T pbc="F F F"
C        1.07302300       0.00912918       0.05350917
C        2.58140459      -0.00557612       0.07908002
O        3.08600903       1.06791020       0.86445292
C        4.42008390       0.65720678       1.17657527
C        4.29034702      -0.86631435       1.37127909
O        3.06613311      -1.20692081       0.69609922
H        0.70474927      -0.85102583      -0.51942527
H        0.71581524       0.93022354      -0.42459324
H        0.68475614      -0.04599243       1.07875544
H        3.00874175       0.06576214      -0.94745756
H        5.10389040       0.89632109       0.34035538
H        4.74471084       1.19495793       2.07626703
H        5.13850885      -1.41422171       0.92918426
H        4.19045686      -1.14748961       2.43129828
