13
Properties=species:S:1:pos:R:3 -1414.4474169864973=T 10.737097=T 10.84041=T -8.5224=T -6.4838=T -8.766=T 0.5431=T -1.0379=T 0.122=T 8.23254=T 0.33634=T 5.0445315918=T 0.404367632=T pbc="F F F"
C        1.01744568       0.06471710       0.12892549
C        2.33323456       0.02154712      -0.12446200
O        3.07161495       1.15617699      -0.40963161
C        4.36311676       0.73021822      -0.83636309
O        4.52161853      -0.62666502      -0.43026382
C        3.26339765      -1.12256628      -0.13830045
C        3.04026160      -2.42330638       0.09758605
H        0.48397427      -0.84680351       0.38449125
H        0.47133288       1.00425688       0.09445886
H        4.43276125       0.79971479      -1.93771170
H        5.12959417       1.34797480      -0.34699021
H        2.04215026      -2.76399171       0.35927923
H        3.84840745      -3.14858300       0.04259199
