16
Properties=species:S:1:pos:R:3 -1649.1404693324114=T 10.641269=T 11.52272=T -9.2036=T -7.121=T -10.308=T 0.9477=T 0.0923=T 2.809=T 9.89644=T -2.86668=T 8.008751684=T 10.2763688338=T 0.172202766=T pbc="F F F"
C       -0.90550059       0.00007257      -1.19167800
C       -0.60278291       1.02694877      -0.07109791
C       -1.30878397       0.00000758       0.88504089
C       -0.60289953      -1.02694434      -0.07117483
C        0.87567717      -0.74752468       0.30391680
N        1.76894960      -0.00015600      -0.59658833
C        0.87577262       0.74730673       0.30395467
H       -1.96985715       0.00007932      -1.45778292
H       -0.30872090       0.00008127      -2.11655852
H       -0.91755463       2.07551668      -0.14346140
H       -0.99977771      -0.00005155       1.94140746
H       -2.40625987       0.00007593       0.80045423
H       -0.91781703      -2.07546124      -0.14363645
H        1.35978296      -1.35981768       1.06706861
H        1.43590403      -0.00011962      -1.56556773
H        1.35997789       1.35949626       1.06712341
