17
Properties=species:S:1:pos:R:3 -1710.1042770936247=T 12.495646=T 14.52365=T -9.4199=T -7.106=T -9.202=T 0.8986=T 0.0215=T 2.405=T 8.92498=T -1.96584=T 4.182543724=T 11.7675608544=T 0.469535807=T pbc="F F F"
C        0.97484683      -0.10219911       0.00444829
C        2.51230484      -0.02987471       0.00154231
C        3.00922076       1.34139653      -0.00145515
C        3.37561120       2.50050075      -0.00524721
C        3.85722488       3.87307058      -0.00596259
O        2.76573510       4.78524490      -0.17099402
C        3.22534158       6.12963268      -0.16997754
H        0.64143380      -1.14910060       0.00450127
H        0.56101813       0.39565700      -0.88249955
H        0.56407745       0.39498157       0.89322024
H        2.90812118      -0.56286382      -0.87949040
H        2.91097076      -0.55811882       0.88417694
H        4.59421944       4.01462885      -0.82435384
H        4.38772034       4.08829929       0.94548143
H        2.34243877       6.76767649      -0.29888321
H        3.93361915       6.32033772      -0.99924608
H        3.72396579       6.39048070       0.78346911
