20
Properties=species:S:1:pos:R:3 -1955.9697958484842=T 12.129252=T 13.21996=T -8.2499=T -6.195=T -9.733=T 0.8792=T -0.066=T 3.025=T 8.97084=T -2.6885=T 7.7216249052=T 10.5598008298=T 0.13354639=T pbc="F F F"
C        0.97610561      -0.00568112       0.02701794
C        2.50913408       0.01882587       0.00439630
C        3.00531497       0.11368045      -1.45403313
C        3.09028519       1.16062542       0.86453908
C        4.50276069       0.67451846       1.21693235
C        4.33596636      -0.85480546       1.35256044
N        3.03809585      -1.17602907       0.71109468
H        0.61567605      -0.09602343       1.06086733
H        0.58991097      -0.86468388      -0.54293798
H        0.55628834       0.90830694      -0.42016678
H        4.10294214       0.15326740      -1.50843724
H        2.60651509       1.00856974      -1.95717702
H        2.67130545      -0.76441627      -2.02908530
H        2.48338347       1.26417866       1.77810614
H        3.07960711       2.12587475       0.33889912
H        5.20530711       0.91778257       0.40576717
H        4.89471931       1.13599868       2.13363542
H        5.18284494      -1.39090747       0.89111190
H        4.30615794      -1.15476493       2.41451757
H        3.11944933      -1.97006732       0.07527203
