14
Properties=species:S:1:pos:R:3 -1436.3173463893816=T 10.87797=T 11.70693=T -9.4018=T -7.5649=T -10.131=T 0.6294=T -1.2779=T -0.493=T 9.24083=T 0.83531=T 4.6688292146=T 7.8694286158=T 0.210149116=T pbc="F F F"
C        1.04775749      -0.82975787      -0.08827507
C        2.25011583       0.07457551       0.14896623
N        1.83016717       1.45974871       0.30938875
C        2.72611299       2.47877237       0.54004693
N        4.01616202       2.45669350       0.56068183
C        2.07105960       3.76077240       0.77094490
N        1.50638099       4.76354505       0.96127222
H        1.37791650      -1.86877276      -0.21380053
H        0.50220922      -0.53458664      -0.99542346
H        0.35337444      -0.80114184       0.76405465
H        2.94288737       0.01016525      -0.70752563
H        2.80711535      -0.25781192       1.04438023
H        0.84471393       1.64929999       0.46833301
H        4.37477711       1.50733827       0.39717596
