7
Properties=species:S:1:pos:R:3 -925.9164963899065=T 11.51867=T 10.78745=T -10.2785=T -8.2379=T -9.501=T -0.9088=T -2.6598=T -0.687=T 9.13926=T 1.10029=T 2.8857493528=T 6.8995853266=T 2.087814969=T pbc="F F F"
C        0.98399445       0.00000000       0.00000000
C        2.20541455       0.00000000       0.00000000
C        3.55485680       0.00000000       0.00000000
C        4.78354079       0.00000000       0.00000000
C        6.13979522       0.00000000       0.00000000
N        7.31650953       0.00000000       0.00000000
H       -0.08711135       0.00000000       0.00000000
