16
Properties=species:S:1:pos:R:3 -1622.6404646808742=T 10.903085=T 11.42964=T -8.396=T -6.3262=T -8.983=T 0.8809=T -0.0717=T 1.18=T 8.56914=T -0.61045=T 5.8499942422=T 0.238356202=T pbc="F F F"
C        0.93423218      -0.04567896      -0.18724194
C        2.45101725       0.03451392       0.01186476
N        3.07597393       0.17916429      -1.32870342
C        3.01543546      -1.23407712       0.71125185
O        3.96188605      -0.79719479       1.73312438
C        3.75525037       0.55224022       1.87752498
C        2.89344841       1.09725835       1.00625085
H        0.42137445      -0.17273718       0.77482885
H        0.67701331      -0.88627026      -0.84829539
H        0.55542318       0.87746563      -0.65223933
H        4.07114054       0.39107222      -1.20609405
H        2.67683866       0.99862661      -1.79738510
H        3.54486417      -1.88976135       0.00798113
H        2.22131950      -1.79897844       1.22326974
H        4.34015914       1.01111250       2.67356171
H        2.61837338       2.14783437       0.95078099
