21
Properties=species:S:1:pos:R:3 -2067.2626572165887=T 12.920131=T 14.30558=T -9.3317=T -7.2063=T -10.44=T 0.8807=T -0.0164=T 2.935=T 10.02314=T -3.06652=T 8.344629758=T 10.890372303=T 0.296777022=T pbc="F F F"
C        0.91904824       0.14081719      -0.26563826
C        2.41756882       0.10271864      -0.01146116
C        2.73226652      -0.00578166       1.47208344
C        3.29812101      -0.65155574      -0.99355573
C        3.36979660       0.86528954      -0.94067596
C        2.81239617       1.65626064      -2.11345525
C        4.62479383       1.51050108      -0.37477892
H        0.66378363       0.12881756      -1.33213415
H        0.46293280       1.03962446       0.18069801
H        0.43721748      -0.73629237       0.19534394
H        3.80362863      -0.11953935       1.67684526
H        2.22280973      -0.88349332       1.90106661
H        2.37624033       0.88200908       2.01991697
H        2.81915601      -1.11105322      -1.86150569
H        4.14240525      -1.21785344      -0.59306398
H        1.95531963       1.16783974      -2.59257052
H        3.58928662       1.78255526      -2.88445410
H        2.49435410       2.66351509      -1.79834394
H        5.09716204       0.91226753       0.41369765
H        4.40574477       2.50688027       0.04283271
H        5.37129776       1.64538304      -1.17384694
