15
Properties=species:S:1:pos:R:3 -1603.7457311784115=T 13.260903=T 13.13575=T -8.8442=T -6.827=T -8.733=T 0.1115=T -1.56=T -0.52=T 8.26312=T 1.12172=T 3.6356662752=T 4.841591307=T 0.745521371=T pbc="F F F"
C        1.16507112      -0.49618126      -0.18091499
C        2.48381869      -0.24007544      -0.08362072
C        3.05758248       1.09168308      -0.09759551
C        4.38059448       1.34959583      -0.01581109
C        4.98786590       2.72205643       0.00828703
C        5.46361169       3.05291626       1.41824242
O        6.62303811       3.23049025       1.73500590
H        0.77984236      -1.51549948      -0.16485251
H        0.43575165       0.31149141      -0.27806533
H        3.18665363      -1.07488551       0.01355412
H        2.35525845       1.92872361      -0.19557058
H        5.08050941       0.51245110       0.08201542
H        4.23052428       3.47347623      -0.27255099
H        5.84956531       2.80299947      -0.67026705
H        4.64170245       3.09904801       2.17847388
