18
Properties=species:S:1:pos:R:3 -1733.8025844633873=T 11.335816=T 12.64725=T -8.7242=T -6.5316=T -10.189=T 0.8878=T -0.0692=T 3.071=T 9.62573=T -2.7956=T 8.206137396=T 12.7340937174=T 0.129381585=T pbc="F F F"
C        0.94841208       0.81283619       1.04720470
C        2.45850142       0.68080724       1.10969414
O        3.03707632       1.54849265       0.12937948
C        4.44626340       1.45809853       0.08777753
C        5.12566526       2.37041767      -0.94562602
N        6.16302306       2.78076314       0.06675027
C        5.30528662       2.19077244       1.15409476
H        0.47960600       0.15606164       1.79338634
H        0.57491221       0.53194305       0.05285122
H        0.64040919       1.84705879       1.25342866
H        2.77048850      -0.36451392       0.90916720
H        2.83035814       0.94776818       2.11854040
H        4.76076884       0.40011688      -0.02176071
H        4.48703617       3.22856796      -1.20830440
H        5.50701071       1.90764852      -1.86660053
H        6.99103500       2.19069220      -0.05390265
H        5.83637977       1.58513978       1.90262878
H        4.73694731       2.98612906       1.66399084
