12
Properties=species:S:1:pos:R:3 -1228.1088544365061=T 10.140145=T 10.52746=T -8.8875=T -6.9957=T -9.565=T 0.9917=T -0.7474=T 0.246=T 8.75757=T 0.22424=T 4.1516216156=T 10.598633245=T 0.347470281=T pbc="F F F"
C        1.04544283      -0.12954326       0.18223680
N        2.43024494       0.12953185      -0.15578315
C        2.95946129       1.40937739      -0.12223415
N        2.40338100       2.48696857       0.33092394
C        4.30377125       1.48320476      -0.64670656
C        5.42877661       1.50521431      -1.10150454
H        0.84105826      -1.19648704       0.03767683
H        0.34421425       0.44993899      -0.44407154
H        0.84775319       0.11055199       1.23890233
H        2.92913729      -0.55453475      -0.71487137
H        1.44850619       2.29420857       0.66161106
H        6.42371291       1.55576864      -1.49473965
