17
Properties=species:S:1:pos:R:3 -1663.3702904060276=T 10.606333=T 12.02207=T -9.8782=T -7.6238=T -11.806=T 0.9159=T -0.0296=T 2.856=T 10.95827=T -2.57928=T 9.2592496828=T 11.3969914976=T 0.191702741=T pbc="F F F"
C        1.75053055       1.50144077       1.91303720
O        3.07103330       1.65196741       1.41446617
C        3.13266955       1.42974919       0.00814713
C        4.56964901       1.59893974      -0.46621970
C        5.08135648       3.01267735      -0.31814936
C        5.89842866       3.43672445       0.82736089
O        6.50559390       3.20113215      -0.46152635
H        1.78985207       1.67848651       2.99513672
H        1.36001395       0.48242195       1.72786348
H        1.05613297       2.23026501       1.45287209
H        2.46234229       2.14307469      -0.51686097
H        2.77404675       0.40835462      -0.23100418
H        4.61634553       1.31070848      -1.52935263
H        5.22792032       0.91152332       0.08683378
H        4.48289044       3.78335893      -0.82429896
H        6.14234280       2.70104394       1.60047404
H        5.88180144       4.48265149       1.15123066
