18
Properties=species:S:1:pos:R:3 -1740.2505190635366=T 11.342609=T 12.68692=T -9.1545=T -7.0704=T -10.621=T 0.9326=T 0.058=T 2.84=T 9.92149=T -2.49942=T 8.418463421=T 12.044248012=T 0.122613793=T pbc="F F F"
C        3.24711312      -1.33278824      -0.30202009
C        2.55861543      -0.02902407       0.06920450
O        2.01607294      -0.18362636       1.39112857
C        3.50327492       1.15680782       0.03311231
C        3.45559154       2.18010252      -1.05303429
N        2.87093501       2.46352925       0.26507845
C        3.63028723       3.39775618       1.09570598
H        3.66976969      -1.27112030      -1.31459303
H        2.53045056      -2.16388962      -0.27113039
H        4.05936903      -1.55166482       0.40645994
H        1.73514039       0.17077848      -0.64511900
H        1.63074293       0.68440451       1.61537704
H        4.47693079       0.99423519       0.51481061
H        2.74188476       2.07236347      -1.87414673
H        4.39285471       2.68421431      -1.31160908
H        3.40787050       3.20551433       2.15521796
H        3.32015985       4.42586614       0.85878176
H        4.72665658       3.32019121       0.95044548
