17
Properties=species:S:1:pos:R:3 -1648.0279871430566=T 10.905433=T 11.62511=T -8.8799=T -6.8844=T -9.842=T 0.7874=T -0.2568=T 0.997=T 9.06615=T -0.37114=T 4.914929026=T 6.2790477952=T 0.18132823=T pbc="F F F"
C        0.84088171      -0.04683357       0.12219110
C        2.36420371       0.09240050       0.03472981
C        3.07346198      -0.78162312       1.07623714
O        2.70635287      -0.37023083      -1.29541571
C        2.75067237       1.58530009       0.22084858
N        3.25907123       2.17757595      -0.91454649
N        2.65053404       2.26252424       1.31334168
H        0.36033764       0.53434705      -0.67640204
H        0.47097973       0.32175958       1.08702036
H        0.55864129      -1.10187782       0.00572143
H        2.80297843      -0.49419238       2.10097469
H        4.16630986      -0.68773298       0.98558162
H        2.79108656      -1.83245428       0.92500155
H        3.67107847      -0.50486510      -1.31724026
H        3.00359104       1.74870490      -1.79939980
H        3.31114026       3.19224183      -0.88114536
H        2.31445881       1.67054592       2.08009170
