17
Properties=species:S:1:pos:R:3 -1735.6887707141602=T 10.795137=T 12.02452=T -9.1062=T -7.0007=T -11.274=T 0.8908=T -0.0055=T 2.682=T 11.6344=T -2.38092=T 9.0613184324=T 10.4558261702=T 0.109009844=T pbc="F F F"
C        0.98986541      -0.08045027      -0.05407812
C        2.49613545       0.02627777      -0.01142994
C        3.44271766      -0.57638491      -1.10774918
C        4.48929189      -0.34067692       0.00518776
C        3.39453338      -0.74183234       1.02016881
O        4.53846514       1.10685668       0.11878987
C        3.11569483       1.42708732       0.11154512
H        0.53751949       0.33878634       0.85806044
H        0.66721112      -1.12803112      -0.13890190
H        0.57858135       0.46966238      -0.91464719
H        3.57406212      -0.02271182      -2.04851520
H        3.23648043      -1.63880192      -1.29367868
H        5.50908986      -0.73972665      -0.00279709
H        3.18382667      -1.81949067       1.03000260
H        3.48154738      -0.34081009       2.04019282
H        2.88196325       2.08019278      -0.74610699
H        2.84135457       1.94036344       1.04857685
