17
Properties=species:S:1:pos:R:3 -1641.4924284628373=T 10.651204=T 11.55828=T -8.5573=T -6.3949=T -9.792=T 0.8701=T -0.0746=T 2.981=T 9.37976=T -2.63913=T 7.8945109836=T 11.380798926=T 0.244166686=T pbc="F F F"
C        0.86944353       0.03441800      -0.25753156
C        2.35464554       0.03204054       0.04916692
C        2.68956226       0.02426011       1.52639967
C        3.26537677      -0.73192261      -0.90089383
C        3.27119773       0.77429809      -0.92779842
N        4.47566194       1.49888836      -0.58306531
H        0.68339396       0.09988339      -1.33977223
H        0.36695509       0.89019687       0.22209103
H        0.38377273      -0.88543280       0.10796862
H        3.77281320       0.06933333       1.70828839
H        2.31111733      -0.89016376       2.01039778
H        2.23008309       0.88540240       2.03909286
H        2.82399473      -1.27339304      -1.73965954
H        4.14180537      -1.22059863      -0.46684189
H        2.75053448       1.23094334      -1.77655583
H        5.08593660       0.93711489       0.01264572
H        4.25015566       2.35078151      -0.06219236
