21
Properties=species:S:1:pos:R:3 -1950.0956649338311=T 12.53134=T 13.75003=T -8.5451=T -6.4188=T -9.978=T 0.8815=T -0.0575=T 3.199=T 9.26624=T -2.8763=T 8.0389050792=T 11.0779879182=T 0.1149576=T pbc="F F F"
C        1.93515919      -0.99040206       2.27505479
C        1.80784071      -0.13781901       1.00799828
C        2.57657137       1.19502379       1.02296673
C        2.04620339       2.17361543       2.08673795
N        0.65694104       2.56161065       1.79168508
N        4.01418055       0.96043110       1.23227373
C        4.88093588       2.01181108       0.70252110
H        1.42471522      -1.95457287       2.13871527
H        1.47224138      -0.49774333       3.14196487
H        2.98443899      -1.19452590       2.53098153
H        0.74839292       0.09631453       0.82679991
H        2.15623390      -0.71922467       0.13574322
H        2.40276848       1.67367091       0.02835651
H        2.74202649       3.03198696       2.15666800
H        2.06820664       1.67596170       3.06834197
H        0.63515017       3.16669643       0.96595556
H        0.28311973       3.12113478       2.56065164
H        4.26088823       0.07860544       0.77693997
H        4.77409931       2.93370366       1.29280186
H        4.67855678       2.26908797      -0.36011202
H        5.92989964       1.69482342       0.78778406
