15
Properties=species:S:1:pos:R:3 -1514.6943976342354=T 11.854211=T 12.82008=T -8.5819=T -6.4591=T -9.28=T 0.7303=T -0.2396=T 2.231=T 8.96751=T -1.80643=T 4.2945402778=T 9.3738623412=T 0.272620627=T pbc="F F F"
N        1.04470797      -0.07439659      -0.13304326
C        2.47985781      -0.07288532       0.02735336
C        3.27868348      -0.77520044      -1.05853292
N        2.65665503      -1.43593714      -2.17933386
C        3.25673558       0.74820290      -1.01101434
C        4.41557560       1.49558800      -0.62926247
C        5.40106611       2.12077054      -0.28631275
H        0.63801598       0.78946422       0.23248334
H        0.62804188      -0.84775008       0.39113132
H        2.91188959      -0.06750115       1.03590169
H        4.22016826      -1.23060432      -0.74754437
H        1.68011882      -1.12517862      -2.23299472
H        2.62936646      -2.44413948      -2.00450668
H        2.62180168       1.20294228      -1.77744895
H        6.27269573       2.67021521       0.00363459
