18
Properties=species:S:1:pos:R:3 -1794.143780200446=T 11.5387=T 12.55835=T -8.1579=T -6.1665=T -9.679=T 0.9729=T 0.0967=T 3.203=T 8.94561=T -2.94226=T 7.7826756116=T 11.3162518144=T 0.213710254=T pbc="F F F"
C        1.13511613       0.00114840       0.06075575
N        2.58960777      -0.00282489      -0.07034187
C        3.15158838       1.02080622      -1.04851168
C        2.82844575       0.06002993      -2.22262630
C        3.14025219      -0.97278678      -1.10807417
C        4.64892716      -0.77441329      -0.87146402
C        4.65808277       0.79132466      -0.82566116
H        0.83947213       0.87050513       0.66671331
H        0.82988778      -0.90134167       0.61084652
H        0.55429931       0.03412743      -0.88401309
H        2.76441039       2.04679398      -0.98739326
H        3.46789050       0.08323341      -3.11915078
H        1.77267938       0.07466540      -2.51599106
H        2.74114933      -1.99604152      -1.10829591
H        4.96756985      -1.22270566       0.07840100
H        5.25882353      -1.18841507      -1.68689254
H        5.27163537       1.24477092      -1.61706763
H        4.98341228       1.18009340       0.14787689
