17
Properties=species:S:1:pos:R:3 -1727.2726724029662=T 11.783548=T 13.02295=T -9.0936=T -6.9=T -8.965=T 1.0413=T 0.0651=T 1.459=T 8.4438=T -0.82609=T 6.2646034262=T 0.411106881=T pbc="F F F"
C        0.93359383       1.68569390       1.39823634
C        2.38048894       1.32178809       1.27443408
C        3.17300871       1.65318057       0.24660638
C        4.61170524       1.27587364       0.12962643
C        5.69635485       2.35190373       0.42026042
C        6.27865576       1.29779514       1.37476457
O        5.10992220       0.44004328       1.21896345
H        0.74643144       2.25428017       2.32328640
H        0.30237787       0.78433051       1.45670030
H        0.58823819       2.29037983       0.54807654
H        2.82153462       0.73063004       2.08387472
H        2.77348909       2.23178840      -0.59622149
H        4.78771411       0.77227737      -0.84246402
H        5.29027858       3.23454866       0.92953345
H        6.32289311       2.65960115      -0.42562532
H        7.19085317       0.79848122       1.00415317
H        6.42611029       1.59715428       2.42368457
