15
Properties=species:S:1:pos:R:3 -1532.6978562055278=T 10.905676=T 11.4451=T -7.8931=T -5.9763=T -8.611=T 1.1392=T -0.1578=T 0.789=T 8.0434=T -0.18069=T 4.848658509=T 12.0242366716=T 0.18613682=T pbc="F F F"
C        1.11022178       0.05239562       0.03266518
N        2.50363206      -0.03681501       0.44388561
N        3.10349413       1.19549267       0.67255763
C        4.31106299       1.17649335       0.18483912
C        4.69928898      -0.09258840      -0.46537417
C        4.63673720      -1.33390579       0.41763787
C        3.39544198      -0.90506471      -0.30371335
H        0.63083210      -0.92920521       0.14421109
H        0.99510974       0.39734661      -1.01314469
H        0.60986306       0.76975290       0.69331322
H        4.94266879       2.05829759       0.28392550
H        5.33514074      -0.09866533      -1.35270796
H        5.14136175      -2.22152998       0.03712922
H        4.67269222      -1.19714624       1.49928865
H        2.95330247      -1.52026807      -1.08955291
