15
Properties=species:S:1:pos:R:3 -1542.6908844387435=T 10.452748=T 11.04682=T -8.9198=T -6.8965=T -10.009=T 1.1174=T -0.3422=T 0.909=T 9.4232=T -0.28599=T 4.5443596692=T 11.6390865612=T 0.226271054=T pbc="F F F"
C        0.93854832      -1.19201742       0.83613801
C        1.19728943      -0.35310946      -0.36161279
C        0.98951813       1.14327626      -0.39943904
C       -0.27567152       1.57420263       0.35548888
N       -1.43961714       0.70640370       0.16578312
C       -1.23437221      -0.52827462      -0.09269965
N       -0.00315808      -1.22459783      -0.32649914
H        1.50008402      -2.11592086       0.98982959
H        0.58146382      -0.70461296       1.74665089
H        1.94354315      -0.73357439      -1.06707889
H        1.87397364       1.66947843      -0.00637217
H        0.89041576       1.43758470      -1.45705639
H       -0.08140104       1.62556384       1.44079500
H       -0.56269275       2.59437344       0.05864097
H       -2.10635353      -1.18864547      -0.18515840
