18
Properties=species:S:1:pos:R:3 -1652.1414277629415=T 10.976527=T 12.16588=T -8.6725=T -6.4805=T -10.073=T 0.9856=T 0.0099=T 3.265=T 9.36386=T -3.00407=T 8.1689911904=T 11.8845416454=T 0.156937365=T pbc="F F F"
C        0.98336085      -0.05507878       0.00059309
N        2.44083101       0.00288418       0.06622374
C        2.95700843       1.36908281      -0.01467781
C        4.48378286       1.38964620      -0.00693156
C        5.06456419       2.80254152       0.01405951
N        6.53429495       2.75711493      -0.04611331
H        0.65487399      -1.10373984      -0.00816281
H        0.54440037       0.45601884      -0.88330409
H        0.55867824       0.41751224       0.90022409
H        2.83444665      -0.54438441      -0.70373096
H        2.57348929       1.92052234       0.86261132
H        2.58183199       1.91438406      -0.91173190
H        4.87545445       0.86479578      -0.89499333
H        4.83664129       0.82805746       0.87493637
H        4.66744245       3.34032191       0.90060174
H        4.71303497       3.35582297      -0.87291503
H        6.89739605       2.31467492       0.80297748
H        6.91213797       3.70719287      -0.05230654
