14
Properties=species:S:1:pos:R:3 -1494.5004747950877=T 10.332502=T 11.69704=T -10.6908=T -8.6924=T -11.521=T -0.5784=T -2.5696=T -1.355=T 10.47995=T 1.81851=T 3.4150207896=T 12.172759501=T 0.224305762=T pbc="F F F"
C        0.84375652      -0.46640416      -0.04194016
C        2.32766642      -0.10170762       0.01580118
C        2.55361111       1.40610090      -0.05910097
C        4.00264959       1.82013322      -0.00706162
O        4.95724593       1.07113778       0.09445676
C        4.22617543       3.28450422      -0.09147519
N        4.39184388       4.43857366      -0.15858247
H        0.70692730      -1.55495020       0.01256726
H        0.37934493      -0.11900197      -0.97715251
H        0.28562004      -0.01846950       0.79400850
H        2.87220479      -0.58728646      -0.80823319
H        2.77955004      -0.48680487       0.94248068
H        2.03519159       1.93831067       0.76015269
H        2.12498242       1.83863434      -0.98218095
