13
Properties=species:S:1:pos:R:3 -1341.5941732851536=T 9.942909=T 10.42508=T -9.5151=T -7.3645=T -10.681=T -0.446=T -2.3927=T -1.35=T 10.27635=T 1.72668=T 3.1518109102=T 6.0964040186=T 0.301347929=T pbc="F F F"
N        1.69040279       1.56997688      -2.03498830
C        2.53805578       1.97251339      -1.15845434
C        3.02694623       3.38541474      -1.40725417
O        3.84470946       3.98458677      -0.73108985
N        2.94970687       1.14113334      -0.07921022
C        4.35941381       1.21420362       0.40433699
C        3.26696847       1.75705298       1.24187348
H        1.40645986       0.60406341      -1.80275930
H        2.54549491       3.83522017      -2.30779813
H        5.02727609       1.93711034      -0.06455634
H        4.78243946       0.23156611       0.62142168
H        2.87821118       1.17712059       2.08102111
H        3.20709506       2.84170767       1.33274739
