16
Properties=species:S:1:pos:R:3 -1491.0366026850552=T 9.392636=T 9.96024=T -9.1333=T -6.9552=T -10.527=T 0.8771=T -0.13=T 3.026=T 9.85852=T -2.73077=T 8.42360884=T 10.9708888114=T 0.147868164=T pbc="F F F"
C        0.99291399       0.00498201      -0.01065907
C        2.52848833      -0.01339902      -0.00032635
C        3.03386414      -0.70553271       1.27402823
C        3.05198310      -0.75966766      -1.24471718
N        2.98569022       1.39619678       0.05295196
H        0.61238025       0.51584513      -0.90948687
H        0.61291643       0.53857091       0.87164491
H        0.58715517      -1.01706383      -0.00931933
H        2.66887091      -0.17573813       2.16491092
H        4.13503370      -0.71197807       1.30710546
H        2.69149034      -1.74964365       1.31693524
H        2.70639782      -0.26755711      -2.16737951
H        2.70553639      -1.80516889      -1.27102720
H        4.15318992      -0.76990062      -1.25743065
H        2.68445117       1.88039975      -0.79901706
H        4.01051812       1.41872510       0.03664650
