16
Properties=species:S:1:pos:R:3 -1539.2142231803023=T 10.229341=T 11.36606=T -8.5105=T -6.3434=T -9.964=T 0.8728=T -0.1154=T 3.098=T 9.61808=T -2.7402=T 7.824694467=T 10.9530100302=T 0.217177047=T pbc="F F F"
C        2.21138981      -0.77949096      -1.06855158
O        1.87994417       0.43993413      -0.40118933
C        3.02929454       1.17480298      -0.06899342
C        3.54810889       2.24706632      -1.05009497
N        2.93468934       2.53610152      -2.32822334
C        2.81753984       2.62751961       0.21540674
O        3.50130691       3.17142161       1.32231941
H        1.26386603      -1.27891940      -1.30634361
H        2.81363280      -1.43791352      -0.41620227
H        2.77420333      -0.59551882      -2.00073099
H        3.76950780       0.64815587       0.54746887
H        4.62962314       2.40442566      -1.03281881
H        1.93265524       2.33191337      -2.27853500
H        3.31226461       1.90799019      -3.04340170
H        1.78384209       2.97380237       0.07676422
H        3.74986146       4.08448908       1.09119578
