15
Properties=species:S:1:pos:R:3 -1516.3095640495692=T 10.252288=T 10.60874=T -8.646=T -6.4737=T -8.97=T 0.9487=T -0.0406=T 1.477=T 8.48929=T -0.85343=T 6.2331605766=T 0.347916242=T pbc="F F F"
C        0.40976292       1.32106794       0.30061572
C       -1.05299294       1.07363873      -0.07851574
C       -1.37910105      -0.39342147      -0.00047261
C       -0.42598605      -1.33322511       0.06913005
C        1.04032220      -1.00637859       0.02118774
N        1.25955099       0.37197684      -0.42602134
H        0.71157387       2.34258976       0.02559780
H        0.51131720       1.22824655       1.40540134
H       -1.24716607       1.44887082      -1.09878282
H       -1.71433080       1.64415065       0.59529859
H       -2.43316179      -0.68482259       0.01051848
H       -0.69219353      -2.38925338       0.16218369
H        1.47996840      -1.21669656       1.02514286
H        1.54470905      -1.68812467      -0.68483672
H        2.24283761       0.61846107      -0.30423704
