14
Properties=species:S:1:pos:R:3 -1397.1297453296577=T 8.75257=T 9.50192=T -10.2644=T -8.01=T -11.221=T 0.6722=T -1.3194=T -0.286=T 10.35192=T 0.9004=T 3.7151660984=T 12.0230712032=T 0.122521357=T pbc="F F F"
C        0.91273965      -0.57740425       0.25568306
C        2.32553690      -0.00490902       0.13881338
C        2.36069635       1.49648919      -0.20866073
O        1.74232098       1.76599571      -1.44862020
C        1.75177488       2.34219713       0.88632867
O        0.87739678       3.16346227       0.66163262
H        0.94729857      -1.65802721       0.44955703
H        0.35286392      -0.41573765      -0.67498699
H        0.34678011      -0.10997333       1.07579656
H        2.88382664      -0.53115060      -0.65006878
H        2.89088795      -0.15481795       1.07423678
H        3.43175946       1.80349960      -0.24007924
H        1.10817563       2.49478502      -1.26628739
H        2.15892216       2.18804111       1.91533522
