12
Properties=species:S:1:pos:R:3 -1354.9669005001583=T 9.96626=T 10.34085=T -9.6874=T -7.5161=T -9.412=T -1.5071=T -3.3779=T -1.967=T 8.9868=T 2.28177=T 2.7119705752=T 6.9501840132=T 0.654366269=T pbc="F F F"
C        0.90880485       0.03248188      -0.00700643
C        2.39661970       0.02293302      -0.00159741
C        3.29314775       1.02726928       0.00403362
N        4.69552766       0.58852452       0.00792318
C        4.67248925      -0.69446776       0.00476430
C        3.23126023      -1.22654905      -0.00128281
O        2.86991666      -2.38988360      -0.00464998
H        0.51395408       1.05601230       0.00071229
H        0.51068530      -0.50299350       0.86809800
H        0.51706021      -0.48689242      -0.89466792
H        3.10827157       2.10064354       0.00607493
H        5.56842275      -1.31830821       0.00653822
