12
Properties=species:S:1:pos:R:3 -1301.3495778679671=T 11.610617=T 11.89832=T -8.5878=T -6.6738=T -8.348=T 1.1502=T -0.3798=T 0.257=T 7.76807=T 0.28406=T 4.4349544228=T 6.2945708424=T 0.399147178=T pbc="F F F"
C        0.92245289       0.01760875      -0.00877301
C        2.42565757       0.05266964      -0.00054714
C        3.18063917       1.20544704       0.00301439
S        4.88245502       0.87766348       0.01122938
C        4.59846747      -0.83060455       0.01035288
C        3.25498646      -1.11492040       0.00371407
H        0.49882096       1.03012101      -0.00091978
H        0.53263652      -0.51818846       0.86998991
H        0.54186438      -0.50043948      -0.90218543
H        2.83142815       2.23466570       0.00115845
H        5.43887020      -1.51857723       0.01482227
H        2.86235121      -2.13204550       0.00220402
