14
Properties=species:S:1:pos:R:3 -1413.6413785359841=T 10.424697=T 11.00658=T -9.6046=T -7.6553=T -11.109=T -0.23=T -2.1087=T -1.505=T 9.96033=T 1.84651=T 3.2119565188=T 5.831185566=T 0.305354546=T pbc="F F F"
C        1.00339067      -0.38429265      -0.02828833
C        2.44954749       0.09418890       0.02637845
C        2.58101043       1.59482048       0.20988745
O        1.61386123       2.34598456       0.30381148
C        3.94380884       2.19217270       0.28063474
N        4.98084633       1.43517631       0.18887160
O        6.16384647       2.17324139       0.27728144
H        0.96571252      -1.47366909      -0.16123453
H        0.46157548       0.08563717      -0.85972224
H        0.46621034      -0.12860362       0.89460936
H        3.00415619      -0.17954603      -0.88680728
H        3.00880621      -0.39152399       0.84354678
H        4.00963054       3.27949313       0.41163180
H        6.84987727       1.48421075       0.19413928
