16
Properties=species:S:1:pos:R:3 -1703.9062824422745=T 12.079112=T 12.64689=T -7.706=T -5.833=T -7.725=T 0.8002=T -0.1363=T 1.144=T 7.22292=T -0.52638=T 4.6736894658=T 6.3084200786=T 0.435250435=T pbc="F F F"
C        2.50357764      -0.60431437      -1.40929824
C        2.42681789       0.05345831      -0.02027960
C        2.90916215       1.47032327       0.01696284
C        2.21805723       2.66747134       0.13782500
C        3.16278768       3.73378840       0.08355468
C        4.41493356       3.16784075      -0.06961968
N        4.24715643       1.79816199      -0.10985478
H        2.12477744      -1.63634760      -1.37680515
H        3.53766012      -0.64000578      -1.78342852
H        1.90737315      -0.03959912      -2.13985967
H        2.99151448      -0.55794702       0.70605652
H        1.38388824       0.04826811       0.32973303
H        1.14144966       2.75779826       0.25531997
H        2.95261918       4.79700130       0.15270673
H        5.39971421       3.61623528      -0.14748654
H        4.99878094       1.12490689      -0.20813659
