12
Properties=species:S:1:pos:R:3 -1276.27323573064=T 10.233999=T 10.39881=T -9.4859=T -7.3154=T -8.999=T 0.3805=T -1.2479=T 0.383=T 8.53925=T 0.14913=T 4.0622525068=T 6.0929076134=T 0.457489514=T pbc="F F F"
O        2.66209551      -0.72661036       1.19891950
C        2.26782670      -0.02366819       0.02106800
C        2.78653857       1.40569017      -0.02439248
C        1.97098994       2.46975281      -0.16032542
C        4.20219973       1.53469677       0.08406439
C        5.41425714       1.53524183       0.20329822
H        3.63571558      -0.68594551       1.24714376
H        1.16927834      -0.01394004       0.02105135
H        2.60841529      -0.55444849      -0.88884576
H        0.89058391       2.33446092      -0.22502102
H        2.36235690       3.48535075      -0.21386316
H        6.48011237       1.58070933       0.29835263
