16
Properties=species:S:1:pos:R:3 -1643.9896783482602=T 13.451831=T 14.08395=T -8.9055=T -6.8758=T -8.549=T 0.6753=T -0.9201=T 0.58=T 8.1298=T -0.00337999999999=T 4.0956543352=T 11.4224458234=T 0.478808111=T pbc="F F F"
C        0.82996339      -0.16329436      -0.08274719
C        2.36677026      -0.06897271      -0.00026722
N        3.08186704      -0.84066794      -1.03857085
C        2.80470690       1.36795190      -0.07425538
C        3.34816480       2.05556239       0.94957867
C        3.72748640       3.42010256       0.89301485
C        4.06862142       4.58905896       0.88653954
H        0.34828990       0.38450697       0.74086998
H        0.50746135      -1.21429827      -0.03166054
H        0.46497231       0.25934910      -1.03192672
H        2.68990160      -0.47548068       0.97350163
H        2.80511309      -0.49950400      -1.96508609
H        2.77733954      -1.81765450      -0.99994630
H        2.63956977       1.88134777      -1.02887218
H        3.51902912       1.54491990       1.90436506
H        4.36561312       5.61737291       0.86963274
