15
Properties=species:S:1:pos:R:3 -1562.1188018213086=T 11.181873=T 11.93437=T -10.0424=T -7.8258=T -10.204=T -0.2882=T -1.933=T -0.701=T 9.50507=T 1.37895=T 3.5994127688=T 5.2850768304=T 0.412980983=T pbc="F F F"
C        0.65515202       0.33785791       0.05604955
C        2.12569573       0.11139038       0.09625002
C        3.06682057       1.03732863      -0.16836257
C        4.50677869       0.72918369      -0.10801440
O        4.97194724      -0.37091503       0.20238829
C        5.47480768       1.85048029      -0.45380494
O        6.80735840       1.42210811      -0.35683115
H        0.18162918      -0.33661132      -0.67555898
H        0.39825473       1.37310609      -0.20340481
H        0.20093830       0.09441948       1.02983592
H        2.47662300      -0.89222204       0.36217950
H        2.78426050       2.05908056      -0.44264578
H        5.27603559       2.70303775       0.22687722
H        5.24077668       2.20659765      -1.47759841
H        6.72917170       0.47807786      -0.07980945
