17
Properties=species:S:1:pos:R:3 -1684.3172869023908=T 11.682501=T 12.44288=T -8.7431=T -6.5249=T -8.709=T 0.8492=T -0.2025=T 1.481=T 8.18979=T -0.80332=T 5.9202943042=T 0.289811937=T pbc="F F F"
N        2.36562704      -0.43495062       1.51282933
C        2.49952759      -0.00666450       0.10313539
C        3.03351232       1.39139768      -0.00030805
C        4.16862355       1.80117617      -0.58401643
C        4.34713311       3.29114864      -0.42557045
N        3.05435340       3.78305968       0.11979528
C        2.32948772       2.58673542       0.61673416
H        2.01030167      -1.39376922       1.53927855
H        1.65790207       0.13570455       1.98287530
H        1.54273689      -0.05672990      -0.46182490
H        3.19726768      -0.69868103      -0.39254636
H        4.90811051       1.15054462      -1.05364723
H        5.17149993       3.50696503       0.28246938
H        4.59768176       3.81203148      -1.36370124
H        2.51835898       4.16296587      -0.66194693
H        1.25813040       2.64225645       0.35818295
H        2.38896540       2.53530970       1.72190125
