13
Properties=species:S:1:pos:R:3 -1418.3628550822211=T 9.624281=T 10.21406=T -8.6861=T -6.5382=T -9.26=T 0.8055=T -1.1614=T -0.154=T 8.85266=T 0.82384=T 3.6263549266=T 12.0901600278=T 0.27679551=T pbc="F F F"
O        1.07200258       0.34240721      -0.87537064
C        2.01775980       0.24234762      -0.12271990
C        3.19954606       1.21304680      -0.06578693
C        3.83119065       1.35034194       1.34088205
O        3.50167749       2.68905963       1.81937943
C        2.99878347       3.36858727       0.73668992
C        2.83086706       2.64531273      -0.37793301
H        2.09963153      -0.62501427       0.58909205
H        3.93763995       0.79308165      -0.77591349
H        4.92769880       1.27115531       1.31396415
H        3.43668129       0.62488978       2.06878506
H        2.78290818       4.41796130       0.92795142
H        2.40778313       2.98995302      -1.31502011
