13
Properties=species:S:1:pos:R:3 -1401.4046293321644=T 11.439555=T 12.57845=T -10.095=T -7.7297=T -9.851=T 1.3026=T -0.2587=T 1.985=T 9.68675=T -1.64437=T 4.3882860924=T 10.7331208592=T 0.67104358=T pbc="F F F"
C        1.54127246      -0.96656723       0.61820245
C        2.62044442      -0.59878540       0.20594669
C        3.90656799      -0.18010998      -0.32733402
O        4.56786601       0.67552599       0.61822147
C        5.81274163       1.16415385       0.11262564
C        6.82377613       0.12574554      -0.09539373
C        7.64825426      -0.74578704      -0.27958749
H        0.58963568      -1.28664266       0.99072043
H        3.75624524       0.35957011      -1.28441624
H        4.53139563      -1.06748594      -0.54228013
H        6.16603105       1.88618583       0.86353473
H        5.65666716       1.71590303      -0.83636714
H        8.38195235      -1.51167610      -0.42970266
