17
Properties=species:S:1:pos:R:3 -1760.640181153353=T 10.513895=T 11.57351=T -9.389=T -7.4551=T -11.423=T 0.9542=T 0.0067=T 2.947=T 10.49595=T -2.79393=T 9.2598076198=T 13.312686785=T 0.128678645=T pbc="F F F"
C       -1.25986289      -0.78012365      -0.53862704
C       -1.26241725       0.77866925      -0.53277445
C       -0.00153774       1.07598502       0.30762461
C        1.26718506       0.78197881      -0.52220512
C        1.26972381      -0.77681979      -0.52676929
C        0.00146548      -1.07970344       0.30042810
O       -0.00433268      -0.00510455       1.27419012
H       -1.20332330      -1.20968482      -1.54878699
H       -2.15469927      -1.18224914      -0.04524854
H       -2.15810393       1.17404422      -0.03547569
H       -1.20824890       1.21608858      -1.53968553
H       -0.00501422       2.03466321       0.84031009
H        2.15760157       1.18075423      -0.01822414
H        1.21959910       1.21829649      -1.52992750
H        2.16098412      -1.17554706      -0.02422226
H        1.22447862      -1.20748344      -1.53702625
H        0.00025243      -2.04192394       0.82669991
