13
Properties=species:S:1:pos:R:3 -1320.6385142196928=T 9.587728=T 10.83808=T -9.4516=T -7.059=T -9.199=T 0.9016=T 0.0039=T 2.524=T 8.81362=T -2.07604=T 4.1456330918=T 10.1686745942=T 0.737147368=T pbc="F F F"
C        0.96858454      -0.08441307       0.00279225
C        2.50533081      -0.01124495       0.00045936
C        3.01893141       1.35563256       0.00029290
C        3.42066259       2.50379467       0.00026318
C        3.90427332       3.87728121       0.00024012
H        0.63436172      -1.13149238       0.00263320
H        0.55292549       0.41201019      -0.88450938
H        0.55583367       0.41087993       0.89207982
H        2.89830381      -0.54618314      -0.88081193
H        2.90096009      -0.54701703       0.88002086
H        3.10484355       4.57979297      -0.27980681
H        4.72994995       4.01042182      -0.71496542
H        4.27323907       4.17151721       0.99437185
