19
Properties=species:S:1:pos:R:3 -1813.8339633282505=T 11.919193=T 12.99928=T -8.4464=T -6.3732=T -9.94=T 0.8493=T -0.0884=T 3.025=T 9.42812=T -2.74247=T 7.9787346734=T 12.1941098902=T 0.105922762=T pbc="F F F"
C        0.92604905       0.04707985       0.12075443
C        2.43454018      -0.02435217      -0.00933932
N        3.22926690       1.03087827       0.71241843
C        4.19997342      -0.02131891       1.19442672
C        5.52772478       0.05318753       0.45307424
C        3.21579439      -1.14336467       0.74451120
N        3.76018807      -2.32865984       0.10347723
H        0.44576118      -0.77846853      -0.42652566
H        0.53592194       0.98994982      -0.29156796
H        0.61630110      -0.01959069       1.17647451
H        2.71307032      -0.00520918      -1.08050194
H        2.67802119       1.37449658       1.50548833
H        4.38449938       0.01104270       2.28064214
H        5.37817642       0.09939159      -0.63625658
H        6.15543584      -0.81948450       0.68473317
H        6.06845837       0.96426575       0.74528350
H        2.62232934      -1.47634179       1.61284098
H        4.17562535      -2.09519660      -0.80169472
H        3.02653277      -3.01741520      -0.07284869
