10
Properties=species:S:1:pos:R:3 -1179.1602955673395=T 8.984228=T 9.17688=T -9.8548=T -7.755=T -9.569=T -0.0438=T -1.8916=T -1.06=T 9.71789=T 1.67723=T 3.3679928998=T 5.0402664734=T 0.233312987=T pbc="F F F"
O        2.68337399      -1.14993650       0.12372735
C        2.19144209      -0.03944742       0.01994465
C        2.94309453       1.22391586       0.01259720
C        2.40889395       2.48310646      -0.10301922
O        3.42682132       3.38929732      -0.06801052
C        4.55736846       2.60438135       0.07139471
N        4.33244401       1.33300100       0.12361791
H        1.08503760       0.10338289      -0.08151359
H        1.40474091       2.87797182      -0.20995697
H        5.50278314       3.13578723       0.12136848
