15
Properties=species:S:1:pos:R:3 -1512.1912738220794=T 11.107164=T 11.70721=T -8.7432=T -6.7122=T -9.764=T 1.2867=T -0.4026=T 0.497=T 9.36241=T 0.26635=T 3.7512956188=T 5.9899248418=T 0.283506401=T pbc="F F F"
C        1.29133622      -1.55876105       0.52394220
C        1.59173628      -0.28729211      -0.23135238
O        0.72984758       0.35620394      -0.81322935
C        3.04074614       0.22218761      -0.22129570
N        4.02872403      -0.78996397       0.08317867
C        5.01716101      -0.89776821      -0.72404004
N        6.06978644      -1.75634922      -0.50168136
H        1.67551757      -1.49107920       1.55240875
H        1.83238911      -2.39748030       0.06096546
H        0.21270001      -1.74767610       0.51898395
H        3.05596031       0.99510289       0.57248577
H        3.20656347       0.75476606      -1.17864912
H        5.13573191      -0.27770961      -1.63345581
H        5.92127027      -2.46082524       0.21768549
H        6.60720965      -2.05683548      -1.30783654
