14
Properties=species:S:1:pos:R:3 -1478.6259767336903=T 10.0703=T 11.38914=T -10.9215=T -8.6661=T -11.655=T 0.7957=T -0.4765=T 1.381=T 11.25298=T -0.96975=T 5.4047481176=T 11.7712184414=T 0.171975272=T pbc="F F F"
O        2.80882657      -0.95577550      -0.67199961
C        2.24452757       0.17699650      -0.00223724
C        1.79586665      -0.27632830       1.32642454
N        1.42188254      -0.57663489       2.38845291
C        3.21644768       1.33391328       0.12325139
C        3.36619923       2.27483327      -1.05470221
C        2.69421217       2.74505104       0.21207281
H        3.26842846      -0.60511892      -1.45663971
H        1.33776366       0.53310206      -0.53455788
H        4.11642521       1.09496194       0.69335187
H        2.73157090       2.10985118      -1.92796763
H        4.36505960       2.64539658      -1.28380873
H        3.22857077       3.43872787       0.85987900
H        1.61309899       2.88867389       0.18889048
