15
Properties=species:S:1:pos:R:3 -1549.9281621100695=T 10.197025=T 11.22052=T -8.0458=T -5.8944=T -9.074=T 1.0416=T 0.1481=T 1.025=T 8.74743=T -0.54979=T 5.6831090862=T 11.810162444=T 0.221544158=T pbc="F F F"
C        3.09703464      -1.09086755      -0.72633949
C        2.47363954       0.04945241       0.08031380
C        3.24868223       1.34191446      -0.04635175
O        3.22527980       1.84932466      -1.40243701
C        3.13884334       3.22940572      -1.24143730
C        2.82343010       3.53616095       0.02115797
O        2.67865030       2.37992549       0.78302215
H        2.52642880      -2.01898447      -0.58869013
H        4.13278035      -1.28526669      -0.40934117
H        3.11013229      -0.85507991      -1.79911858
H        2.44255261      -0.20542887       1.15108149
H        1.43866765       0.24312202      -0.24052881
H        4.31650854       1.21929220       0.24705628
H        3.27386488       3.84327081      -2.12413855
H        2.61868494       4.48237875       0.50752110
