16
Properties=species:S:1:pos:R:3 -1548.2370554229622=T 9.953524=T 11.09496=T -9.8535=T -7.5874=T -11.091=T 0.6846=T -0.3482=T 2.622=T 10.42215=T -2.31909=T 8.571648124=T 13.4486126368=T 0.112671419=T pbc="F F F"
N        1.19917322       0.08638376       0.05601929
C        2.65264023      -0.11611514      -0.12025682
C        2.85167922      -0.81383117      -1.47675346
O        2.17881450      -0.11850598      -2.51950936
C        3.34073192       1.23457028      -0.09427224
C        3.87709025       1.79617022       1.15823243
O        4.75520361       1.20966407       0.17753417
H        1.01518083       0.70251073       0.85097826
H        0.74524384      -0.80681636       0.26407534
H        3.11907728      -0.74123038       0.66672049
H        2.49026922      -1.86019619      -1.39705869
H        3.92226700      -0.84725383      -1.72699258
H        1.33870146       0.17825729      -2.10726486
H        3.04674159       1.92493367      -0.89360959
H        3.77739800       1.22506826       2.08883940
H        3.96531784       2.88152077       1.27343823
