19
Properties=species:S:1:pos:R:3 -1768.8560653933605=T 11.254036=T 12.18123=T -9.3232=T -7.143=T -10.61=T 0.7089=T -0.2874=T 2.772=T 9.94198=T -2.46592=T 8.3882976272=T 11.6147357108=T 0.075497334=T pbc="F F F"
C        3.04392689      -0.99891365      -1.22825806
C        2.69549988      -0.13858052      -0.00552744
N        3.16368821      -0.68708395       1.28402120
C        3.17765517       1.32887738      -0.14137360
N        2.82206587       2.16017548       1.02325493
C        4.69939063       1.47680602      -0.34247015
O        5.06294648       2.84942228      -0.31392438
H        2.69714600      -0.53181610      -2.16371784
H        2.57097459      -1.98904421      -1.15203046
H        4.13020727      -1.15471627      -1.31354424
H        1.59494285      -0.08687055       0.07361766
H        4.13829854      -0.99092633       1.20338983
H        2.62574605      -1.52217673       1.52382756
H        2.69166378       1.77137471      -1.02728034
H        2.90418333       1.56345419       1.85627634
H        1.84772483       2.46173280       0.96710792
H        5.00930385       1.06932745      -1.31631265
H        5.23938615       0.91421047       0.44902400
H        4.45553963       3.21715752       0.37089972
