11
Properties=species:S:1:pos:R:3 -1221.7946356292096=T 9.151649=T 9.8365=T -10.1594=T -8.0676=T -10.884=T 0.0904=T -1.8251=T -0.355=T 10.19601=T 1.06432=T 3.7192576364=T 11.6013948172=T 0.106803721=T pbc="F F F"
O        1.16023324      -0.01537909       0.80587947
C        2.26134894      -0.02344651       0.33562287
C        3.25904994       1.01023739      -0.18183338
N        4.30737499      -0.05430031      -0.21669152
C        3.32786439      -1.15416844       0.04827188
C        2.98870324      -1.99682278      -1.08696764
N        2.73940454      -2.63383183      -2.03422273
H        3.47952532       1.84954809       0.49488739
H        2.94288675       1.40874973      -1.16188757
H        4.77251645      -0.14690995      -1.12128328
H        3.57763221      -1.77406630       0.92466451
