17
Properties=species:S:1:pos:R:3 -1683.2122622314903=T 11.003074=T 12.00536=T -9.8297=T -7.6057=T -9.636=T 1.068=T -0.4218=T 1.045=T 9.02193=T -0.41976=T 6.460476509=T 0.395729879=T pbc="F F F"
C        1.97330750      -0.94719299       1.23327543
C        3.40871246      -0.68034795       0.86354329
C        4.40123448      -1.52896299       1.17654921
C        3.64365506       0.62056883       0.12126103
O        3.33410399       1.75971117       0.97339131
C        5.02945489       0.82842183      -0.48923446
O        5.09920688       2.08739261      -1.15177936
H        1.53741669      -0.08640924       1.76095770
H        1.87718470      -1.83823349       1.86663292
H        1.36569432      -1.10072643       0.32688926
H        4.19703931      -2.45357396       1.72003965
H        5.44007097      -1.34539157       0.90079011
H        2.90453935       0.70508093      -0.69441061
H        3.83094854       1.62695948       1.80327615
H        5.23736754       0.05366489      -1.24216025
H        5.80408675       0.75761603       0.30062477
H        4.64875656       2.71666287      -0.55348615
