19
Properties=species:S:1:pos:R:3 -1780.531729478822=T 11.283712=T 12.34019=T -8.5616=T -6.4678=T -10.036=T 0.9476=T 0.0306=T 3.196=T 9.29905=T -2.90891=T 8.0993110584=T 11.715375147=T 0.134688131=T pbc="F F F"
C        3.25851674      -1.14250663      -0.05620845
C        2.43518384      -0.12735381       0.74133796
C        2.89661779       1.33148301       0.60816384
C        1.92501730       2.26768602       1.33233543
N        4.25486425       1.48046122       1.15389124
C        4.89867413       2.75138425       0.82129249
H        2.80950654      -2.14425439       0.00603827
H        4.28925570      -1.23824655       0.31845754
H        3.30999229      -0.86728260      -1.12137667
H        2.44056982      -0.39603393       1.81146311
H        1.38599626      -0.17729955       0.40797053
H        2.87900790       1.59495690      -0.47820341
H        1.91166647       2.03970852       2.40899569
H        0.90741502       2.14814329       0.93341098
H        2.20432377       3.32317298       1.21022545
H        4.83285055       0.72480352       0.78129919
H        4.44852040       3.57391479       1.39642296
H        4.83578531       3.01933933      -0.25585067
H        5.95985593       2.70280364       1.10194451
