18
Properties=species:S:1:pos:R:3 -1745.8824024844823=T 11.297977=T 12.67801=T -8.864=T -6.7034=T -10.06=T 0.8204=T -0.1203=T 2.941=T 9.59952=T -2.64704=T 8.0503117912=T 11.1355174222=T 0.282063296=T pbc="F F F"
C        1.02818384      -0.07740322       0.04729381
C        2.53793063      -0.05113090       0.00656233
C        3.32994991      -0.70857991      -1.12397984
N        2.75655218      -1.37404604      -2.27450210
C        3.27687017       0.79590266      -1.01586288
C        4.51395997       1.57679928      -0.64969449
O        5.37976280       1.80546723      -1.76934405
H        0.62690556       0.80245174       0.57247717
H        0.66019742      -0.97461675       0.56954100
H        0.59315379      -0.08338285      -0.96313702
H        3.01973854      -0.11376718       0.98778614
H        4.27282222      -1.17011890      -0.80983678
H        2.05029773      -0.78891098      -2.72368809
H        2.29240813      -2.24344496      -1.99809965
H        2.63952801       1.28904990      -1.75870057
H        5.05185889       1.05425175       0.16585453
H        4.24777357       2.57839433      -0.27794299
H        5.50406665       0.94546481      -2.21096652
