16
Properties=species:S:1:pos:R:3 -1592.608209365579=T 10.077471=T 10.96645=T -9.1903=T -7.1748=T -10.674=T 0.7165=T -0.3769=T 0.589=T 9.61265=T 0.0625=T 4.3793838976=T 6.7535422172=T 0.136263979=T pbc="F F F"
C        0.72705327      -0.12165891      -0.35092638
C        2.22093985       0.24566918      -0.34854964
C        2.91897979      -0.11246175      -1.66825279
O        2.40365103       0.57416529      -2.82838323
C        2.39195310       1.70457766       0.11867895
N        2.57015655       2.62805666      -0.87224658
O        2.34935986       1.99812599       1.31342981
H        0.28471293       0.08832092       0.63131551
H        0.58751487      -1.19134105      -0.56903120
H        0.16448688       0.46306599      -1.09529271
H        2.71425618      -0.35032586       0.43690522
H        2.86240767      -1.20500045      -1.82201649
H        3.98219404       0.16355154      -1.62384928
H        1.50537546       0.23959748      -2.99725341
H        2.51429424       2.34983751      -1.85183185
H        2.62329427       3.60646980      -0.60742593
