15
Properties=species:S:1:pos:R:3 -1600.4018907327898=T 11.124579=T 11.61807=T -8.4496=T -6.3421=T -8.962=T 1.182=T -0.0621=T 1.177=T 9.07587=T -0.63541=T 5.8554744234=T 6.6619785562=T 0.415200369=T pbc="F F F"
C        0.82729661       0.50500622       0.04479938
C        2.11740160       0.15702677       0.09476468
C        3.29725176       1.10125587      -0.01776848
C        4.00006196       1.36831514       1.34786413
O        3.63732666       2.72474436       1.75455398
C        3.13366870       3.32642670       0.62922378
C        2.94763259       2.51854015      -0.42333549
H        0.03680748      -0.23867824       0.15123417
H        0.52613820       1.54501833      -0.09843620
H        2.38088365      -0.89667639       0.24552567
H        4.02781602       0.64738798      -0.70942194
H        5.09661804       1.34204115       1.24887964
H        3.68228842       0.68654309       2.14724585
H        2.93711365       4.39163967       0.74040880
H        2.54369465       2.81081921      -1.38810796
