14
Properties=species:S:1:pos:R:3 -1453.330560900897=T 11.165273=T 11.32734=T -8.3488=T -6.4705=T -9.112=T 0.8389=T -0.7654=T -0.407=T 8.45403=T 1.03039=T 4.2320265366=T 4.5739923232=T 0.376523056=T pbc="F F F"
C        1.66066252      -0.67458355      -1.65147192
N        2.98144689      -0.19712086      -1.27584615
C        3.18562955       0.91035831      -0.52032669
C        4.36949883       1.54328748      -0.28424942
C        4.37799877       2.70360726       0.60795960
O        5.61472046       3.29921392       0.79987217
O        3.40867293       3.17848720       1.17721298
H        1.66326533      -1.77024600      -1.72579092
H        1.31663342      -0.25503885      -2.61206085
H        0.94207727      -0.38981130      -0.87272405
H        3.76988387      -0.55955085      -1.80588910
H        2.29445732       1.31552587      -0.03052946
H        5.29518754       1.19463549      -0.75014888
H        6.28524530       2.80883586       0.28860267
