15
Properties=species:S:1:pos:R:3 -1569.908456232687=T 11.851774=T 12.99846=T -9.0475=T -6.8868=T -9.57=T 0.9639=T 0.0484=T 1.127=T 9.0935=T -0.63472=T 4.3778340726=T 10.6564603154=T 0.693784446=T pbc="F F F"
C        2.95628875      -0.86153497       0.50161415
C        2.54975153       0.40073347       0.70444003
O        3.22385047       1.55859133       0.44365240
C        4.53628130       1.41394320      -0.11366052
C        5.09571158       2.82472537      -0.31526572
C        6.43503138       2.79954457      -0.88710587
C        7.54990836       2.75138027      -1.36391179
H        2.28165117      -1.67151929       0.77028797
H        3.92507336      -1.12575541       0.08251586
H        1.57074586       0.63581313       1.12743703
H        4.48010278       0.87579363      -1.07500338
H        5.17636800       0.83557127       0.57415208
H        5.10963380       3.34809250       0.65431148
H        4.41608365       3.39039110      -0.97276294
H        8.53398802       2.72089983      -1.78483077
