14
Properties=species:S:1:pos:R:3 -1407.0647657997797=T 10.607168=T 10.91513=T -9.1535=T -7.2809=T -10.339=T 0.3465=T -1.3835=T -0.48=T 9.56277=T 1.05431=T 3.999974339=T 5.6939206654=T 0.4254464=T pbc="F F F"
C        2.40269100      -0.42289153      -1.71265538
N        2.59693279       0.29297963      -0.46245558
O        1.75685464      -0.18245243       0.58425233
C        3.84617748       0.80371741      -0.11166436
O        4.71164881       0.96101019      -0.97626217
C        4.02473905       1.19524154       1.31556519
C        5.17847192       1.74851041       1.71134084
H        3.19119167      -0.09470787      -2.39779283
H        1.41710708      -0.18421473      -2.13548177
H        2.47727427      -1.50910983      -1.54964041
H        0.98952419       0.42330933       0.56221995
H        3.21285279       1.00371861       2.01581523
H        5.97985337       1.91665777       0.98925935
H        5.34230095       2.03723149       2.74955960
