14
Properties=species:S:1:pos:R:3 -1475.0931501826094=T 10.963191=T 11.88847=T -10.185=T -7.9763=T -9.798=T 0.2203=T -1.4984=T -0.091=T 9.28881=T 0.55727=T 5.0571781638=T 6.501143917=T 0.338631648=T pbc="F F F"
C        1.12818515      -0.18989023      -0.18256254
O        2.54867951      -0.15473052      -0.08759381
C        3.03427603       1.16574147       0.02448139
C        4.54351763       1.15308824       0.12673647
C        5.28841034       0.03396089       0.11298755
C        5.14895221       2.44449700       0.24304489
N        5.60235275       3.51873107       0.33634630
H        0.84232813      -1.24505189      -0.26670359
H        0.76996885       0.35568495      -1.07439214
H        0.65316656       0.24461496       0.71572498
H        2.61574693       1.66980514       0.92022419
H        2.73639887       1.77607415      -0.85319480
H        4.80356582      -0.93650993       0.02359024
H        6.37328123       0.08023470       0.18985087
