13
Properties=species:S:1:pos:R:3 -1429.6319390425765=T 10.043836=T 10.72889=T -8.4236=T -6.3355=T -8.123=T 0.9117=T -0.1781=T 0.611=T 7.67489=T -0.06217=T 4.4768988866=T 6.887112335=T 0.456361222=T pbc="F F F"
O        1.50610770      -0.27754121      -0.92033031
C        2.67783356      -0.06500070      -0.13093801
C        2.93144828       1.40486239      -0.07587757
C        2.21289947       2.50042296      -0.46289157
C        3.01163557       3.64458975      -0.12601552
C        4.15527716       3.16462277       0.44187277
O        4.12798063       1.78914955       0.47995191
H        1.27152413      -1.21689839      -0.84949178
H        3.56136318      -0.57101009      -0.56637139
H        2.54539237      -0.45912835       0.89586199
H        1.23633410       2.48077515      -0.93411604
H        2.76560607       4.68955245      -0.28813556
H        5.04674778       3.62632373       0.85093109
