17
Properties=species:S:1:pos:R:3 -1633.4476164093212=T 10.713298=T 11.57185=T -8.2816=T -6.2313=T -9.736=T 0.9881=T 0.0754=T 3.224=T 8.98862=T -2.93868=T 7.883153866=T 11.8342281266=T 0.110958311=T pbc="F F F"
C        0.89841671      -0.03901796       0.55237442
C        2.19195296       0.00280813      -0.25077308
C        3.22928750       1.05248112       0.23351227
N        3.90612470      -0.01159183       1.01093671
C        5.35261523       0.00634957       1.07646015
C        3.25800399      -1.04531844       0.17060225
H        0.30259833      -0.92838832       0.29634902
H        0.27837528       0.84756039       0.34971899
H        1.10919062      -0.06853361       1.63164327
H        1.97941977       0.03223008      -1.32810031
H        2.86413917       1.90420464       0.83132336
H        3.84961192       1.43417515      -0.60446807
H        5.71389988      -0.89348841       1.59672284
H        5.68941581       0.88293723       1.65013062
H        5.83248868       0.04322178       0.07158008
H        3.88775729      -1.35918584      -0.68816623
H        2.91662216      -1.94082367       0.71610373
