12
Properties=species:S:1:pos:R:3 -1306.307997253272=T 10.043632=T 10.61994=T -9.3222=T -7.3055=T -9.845=T 0.2277=T -1.6192=T -0.623=T 9.20852=T 1.00207=T 4.7851032854=T 11.2235350836=T 0.305597115=T pbc="F F F"
N        1.08248453       0.14390590       0.13563711
C        2.24416236       0.04347378       0.09006761
C        3.67926756      -0.01634182       0.02106264
N        4.32855057      -1.12149311      -0.13546522
C        5.75325248      -0.73045905      -0.10298029
C        5.78314764       0.81171383      -0.25979000
N        4.41632177       1.15844882       0.18100154
H        6.16699421      -1.04438491       0.87047813
H        6.31240987      -1.25826650      -0.88657865
H        5.94794377       1.11196510      -1.30895719
H        6.53726464       1.29554550       0.37382584
H        4.00027060       2.02580246      -0.15349151
