17
Properties=species:S:1:pos:R:3 -1727.0095402307509=T 11.628981=T 12.57277=T -9.2919=T -7.1431=T -9.257=T 1.4147=T -0.1206=T 1.334=T 8.63154=T -0.69394=T 6.3904120204=T 0.417978286=T pbc="F F F"
C        1.12359855       0.36004121       0.96407780
C        2.36643599       0.08718600       0.16267403
C        2.59558270      -1.08206092      -0.45632052
C        3.37938885       1.19444381       0.06153623
C        2.95743966       2.55405075      -0.55770872
C        3.49289592       3.16744619       0.74533315
O        3.67088760       1.85049140       1.34459376
H        1.39134486       0.62632825       1.99717787
H        0.46156999      -0.51461959       0.98148362
H        0.55576141       1.21129789       0.55593622
H        1.86375806      -1.89201037      -0.43944830
H        3.52345329      -1.26080547      -1.00406403
H        4.31142142       0.80165221      -0.38414198
H        1.87425249       2.66244521      -0.69262855
H        3.47031625       2.83035083      -1.48651938
H        4.45675533       3.69602234       0.64494639
H        2.79649763       3.78924026       1.32975240
