18
Properties=species:S:1:pos:R:3 -1783.1340338052541=T 12.442311=T 13.58141=T -9.2484=T -7.104=T -9.733=T 0.8654=T -0.1342=T 2.297=T 9.3321=T -1.90638=T 4.3568308442=T 10.7392457676=T 0.335463059=T pbc="F F F"
C        0.93678111      -0.10284878       0.02365020
C        2.46760449      -0.06485326      -0.03242404
C        2.97697123      -0.80923320      -1.27170844
C        2.99658112       1.40713429       0.00047822
N        2.54608383       2.24607225       1.12664762
C        4.46282947       1.43489046      -0.03706676
C        5.67658333       1.43071665      -0.03465282
H        0.53633209       0.34573729       0.94407553
H        0.57851855      -1.14175864      -0.01183146
H        0.49704015       0.42718662      -0.83742616
H        2.86813648      -0.56518765       0.86836720
H        2.60376000      -0.33355021      -2.19350922
H        2.62564385      -1.85127463      -1.27134201
H        4.07405382      -0.81664878      -1.31498092
H        2.63100229       1.89966714      -0.92230060
H        2.87596347       1.84016266       2.00710285
H        1.52472006       2.25235610       1.16244290
H        6.74728464       1.44569168      -0.04412209
