19
Properties=species:S:1:pos:R:3 -1882.056217692642=T 11.37524=T 12.55438=T -9.2378=T -7.0546=T -11.251=T 0.9126=T -0.0052=T 2.954=T 10.58339=T -2.74123=T 8.9223673222=T 10.60762223=T 0.166128154=T pbc="F F F"
C       -1.55497046       0.76193422       0.12041029
C       -1.55939267      -0.75602860      -0.08913973
C       -0.30591390      -1.48634150       0.41216869
C        0.96279975      -1.17301535      -0.38674254
O        1.70072737      -0.00117207      -0.02121037
C        0.97444063       1.17297141       0.36002590
C       -0.31148098       1.48899026      -0.40972989
H       -2.45658737       1.18726270      -0.34992935
H       -1.64151289       0.97918643       1.20042048
H       -1.67140497      -0.97300704      -1.16685340
H       -2.45102801      -1.17899326       0.40189780
H       -0.13141666      -1.29436093       1.48456404
H       -0.47853491      -2.57166174       0.32213762
H        1.69109518      -1.98944128      -0.26559119
H        0.70084882      -1.13044657      -1.46401174
H        0.73718664       1.13194236       1.44305618
H        1.70184618       1.98742369       0.22146115
H       -0.47934545       2.57475802      -0.31616566
H       -0.16212628       1.29628922      -1.48578828
