13
Properties=species:S:1:pos:R:3 -1393.921735879111=T 10.046281=T 10.69897=T -7.8037=T -5.8613=T -8.045=T 0.7631=T -0.2529=T 0.815=T 7.67903=T -0.09233=T 4.5241127554=T 12.6372358542=T 0.249229524=T pbc="F F F"
C        0.97884482       0.00269510      -0.00417782
C        2.46840788       0.03810575      -0.00546402
N        3.22600058       1.11923712      -0.00813179
C        4.54255419       0.67915665      -0.01005030
C        4.56727590      -0.69638942      -0.00832786
O        5.54053433      -1.65665016      -0.00844329
N        3.25241453      -1.10596510      -0.00545246
H        0.61451804       1.03606269       0.00589117
H        0.57649606      -0.51371271       0.88133268
H        0.57463484      -0.49664979      -0.89867405
H        5.38137531       1.36915788      -0.01225495
H        6.40330236      -1.20734184      -0.01018253
H        2.94316116      -2.07326617      -0.00342479
