16
Properties=species:S:1:pos:R:3 -1588.0724854333885=T 11.454334=T 12.38479=T -9.0135=T -6.9545=T -10.178=T 1.4246=T -0.2401=T 0.485=T 9.68244=T 0.13981=T 5.4507717208=T 6.2904049128=T 0.211513859=T pbc="F F F"
C        1.04473713      -0.00821480       0.01436572
C        2.55306544      -0.04226219      -0.04525834
C        3.26954439      -0.71211137      -1.18490171
C        3.30135185       0.79753727      -1.08797995
C        4.53157290       1.51948557      -0.70998450
N        5.61182245       0.88836171      -0.41876999
O        6.63233453       1.79328110      -0.01992852
H        0.68266416       0.84520905       0.60724196
H        0.64886665      -0.92780029       0.47241454
H        0.61094853       0.07289676      -0.99369568
H        3.06419151      -0.09751807       0.91974005
H        2.66226765      -1.14102002      -1.98364982
H        4.20383696      -1.23181773      -0.97544529
H        2.65537725       1.35004010      -1.77500691
H        4.49916743       2.61733366      -0.65356381
H        7.38170116       1.19057925       0.13411226
