13
Properties=species:S:1:pos:R:3 -1391.6794384942568=T 12.286676=T 13.06057=T -8.1252=T -6.2585=T -8.465=T 0.7328=T -0.1313=T 0.598=T 7.92452=T 0.05778=T 3.9548186378=T 10.7868067972=T 0.616015574=T pbc="F F F"
C        0.97921190       0.01138676      -0.00885892
N        2.43324593      -0.00664804       0.00049951
C        3.25117503       1.10202210       0.00427250
C        4.57070785       0.68078295       0.01076776
C        4.53177414      -0.73749509       0.01054526
Cl       5.90952424      -1.80089218       0.01797342
C        3.20898358      -1.14741879       0.00406303
H        0.63760168       1.05243271       0.00128793
H        0.57784853      -0.49820509       0.87852737
H        0.58853301      -0.47767845      -0.91252307
H        2.82972979       2.10218453       0.00220624
H        5.45556357       1.30778057       0.01556156
H        2.77411075      -2.14025198       0.00195740
