15
Properties=species:S:1:pos:R:3 -1597.1008209039533=T 9.997598=T 11.03276=T -9.5867=T -7.441=T -10.725=T 0.9489=T 0.0577=T 2.818=T 10.4301=T -2.62716=T 8.4390698942=T 11.2542216186=T 0.256921684=T pbc="F F F"
C       -1.64559802       0.87027811       0.64158550
C       -1.44069186      -0.33125653      -0.24641762
C       -0.43018040      -1.41130792       0.15398790
C        0.92919723      -0.72858327       0.20114290
O        1.04938649       0.33925696       1.17307231
C        0.77462360       0.68319697      -0.20943866
C       -0.67901434       0.96311016      -0.51935891
H       -2.59235210       1.40224925       0.54042018
H       -1.21369200       0.85998061       1.64238587
H       -2.26879296      -0.62532845      -0.89368547
H       -0.67371791      -1.90067700       1.10999143
H       -0.39811786      -2.19662500      -0.61821978
H        1.84455658      -1.30904562       0.04368149
H        1.56184838       1.25235835      -0.71091176
H       -0.90940484       1.60298338      -1.37137537
