20
Properties=species:S:1:pos:R:3 -1941.171505434301=T 13.019813=T 14.12523=T -9.1082=T -6.9504=T -9.48=T 0.8995=T -0.02=T 1.349=T 8.95274=T -0.77313=T 6.6357431186=T 0.438706779=T pbc="F F F"
C        0.67581658       0.09911659       0.73545783
C        2.20336849       0.03148185       0.75884185
C        2.89826572       1.33406869       0.31901310
N        2.62656858       2.51042303       1.16545844
C        4.42897821       1.15943310       0.22584259
C        4.88069579       0.18564364      -0.82082996
C        5.66229860      -0.87980655      -0.60836270
H        0.23123745      -0.86072680       1.03458376
H        0.30348515       0.33629696      -0.27364073
H        0.28570751       0.86403247       1.42469305
H        2.54366866      -0.78755102       0.10357340
H        2.55313560      -0.22495740       1.77586741
H        2.52925489       1.59148383      -0.69217781
H        2.92214599       2.31044766       2.12713073
H        1.61936172       2.68234057       1.21216315
H        4.82451699       0.85824472       1.21237754
H        4.84626624       2.15638194       0.00394778
H        4.54076151       0.39339061      -1.84341813
H        6.02768491      -1.12685784       0.39209020
H        5.96953141      -1.53635609      -1.42386149
