18
Properties=species:S:1:pos:R:3 -1750.7992691709571=T 11.056878=T 11.93944=T -8.4819=T -6.3906=T -9.776=T 0.9776=T 0.054=T 3.104=T 9.05821=T -2.83844=T 7.7404335814=T 12.5637617506=T 0.09410865=T pbc="F F F"
C       -1.47862278       0.76473676       0.12302637
C       -1.49169129      -0.75902347      -0.08155358
N       -0.30657605      -1.51245752       0.34340891
C        0.89407608      -1.21380717      -0.43364699
C        1.69315793       0.05389931      -0.05580110
O        0.92165662       1.17182092       0.38092610
C       -0.23334646       1.47554607      -0.40957396
H       -2.37356392       1.19627227      -0.36078307
H       -1.55549188       1.00021034       1.19766644
H       -1.63628774      -0.98037663      -1.15376386
H       -2.36625192      -1.18343226       0.43799653
H       -0.13313465      -1.36846357       1.34160836
H        1.59649361      -2.06427830      -0.36885409
H        0.58297702      -1.16273328      -1.48938960
H        2.36158850      -0.16007401       0.79294821
H        2.33319380       0.33497487      -0.91810357
H       -0.36785513       2.56583891      -0.33123081
H       -0.05653172       1.24385678      -1.47757028
