15
Properties=species:S:1:pos:R:3 -1499.7247153095327=T 12.428738=T 12.91689=T -8.5139=T -6.6071=T -9.19=T 1.3111=T -0.4196=T 0.572=T 8.63952=T -0.03018=T 4.386810659=T 10.6637382936=T 0.415103614=T pbc="F F F"
C        1.13981818      -0.07259900       0.81412825
C        2.42113281       0.00588165      -0.02836785
N        2.14181881      -0.36787900      -1.43367821
N        1.88616914      -1.69095765      -1.61196983
C        2.05664785      -2.20323646      -2.77984201
C        3.01240716       1.34328693      -0.01404684
C        3.50770693       2.45082069      -0.00144350
H        1.36483015       0.14195402       1.86671949
H        0.72207020      -1.08365946       0.73339028
H        0.40164575       0.65222951       0.44729963
H        3.16603490      -0.69477704       0.39885048
H        2.79684330       0.05707397      -2.10287374
H        1.79586544      -3.25327361      -2.91219033
H        2.43831851      -1.63334953      -3.64269510
H        3.94239087       3.42956497       0.01357927
