17
Properties=species:S:1:pos:R:3 -1740.7177775196344=T 11.164314=T 12.51296=T -9.4253=T -7.2639=T -10.798=T 1.1121=T -0.8044=T 0.019=T 9.95727=T 0.6419=T 3.672217348=T 11.0747022892=T 0.151689623=T pbc="F F F"
C        1.30322396       0.04930041       0.40530965
C        2.63743082      -0.07294305      -0.32774582
C        2.51769930      -0.81315293      -1.65023480
O        1.49134262      -1.28538479      -2.10309334
C        3.31466957       1.27063015      -0.57423197
C        4.15077662       1.91113756       0.50912431
C        4.81542669       1.36981630      -0.73503651
H        1.44502404       0.53256912       1.38121944
H        0.84452469      -0.93609368       0.55931668
H        0.59354717       0.65171809      -0.17931535
H        3.34337352      -0.68258207       0.27322169
H        3.48217246      -0.89110391      -2.21728495
H        2.72300691       1.95891310      -1.18527917
H        4.28235563       1.35490509       1.43894105
H        4.08944432       2.99228241       0.63306796
H        5.21096437       2.07910009      -1.46220915
H        5.40048731       0.45377810      -0.63615974
