10
Properties=species:S:1:pos:R:3 -1022.2052236705812=T 7.643979=T 8.47568=T -9.5498=T -7.0972=T -9.269=T 0.9003=T 0.0256=T 2.567=T 8.88976=T -2.09794=T 4.1617264746=T 13.9095429904=T 1.618089804=T pbc="F F F"
C        0.97502486      -0.00001801      -0.00001133
C        2.43117054      -0.00004721      -0.00000752
C        3.64699165      -0.00004721       0.00000751
C        5.10313540      -0.00001801       0.00001133
H        0.57588030       1.02558105       0.01165187
H        0.57579851      -0.52284569       0.88234334
H        0.57577890      -0.50267015      -0.89400153
H        5.50227888       1.02558127      -0.01165187
H        5.50236068      -0.52284580      -0.88234353
H        5.50238028      -0.50267025       0.89400172
