20
Properties=species:S:1:pos:R:3 -1933.7018260416626=T 12.453218=T 13.81237=T -8.2933=T -6.2467=T -9.637=T 0.9122=T 0.0085=T 3.195=T 8.98083=T -3.24114=T 7.6322557964=T 10.887024681=T 0.168188803=T pbc="F F F"
C        2.07234454      -0.69414273      -1.26850888
N        1.82762538       0.41913893      -0.34865445
C        3.02496767       1.13770796       0.06207578
C        3.81056330       0.40015263       1.12916270
C        3.78308826       1.98107501      -0.96274011
C        2.91796072       2.64432661       0.09750864
C        3.51594485       3.50455016       1.18865229
H        2.66738424      -0.41978572      -2.16385461
H        1.10812119      -1.10182030      -1.60168644
H        2.60502675      -1.50361281      -0.74818739
H        1.17304731       1.07499325      -0.77861526
H        4.71954273       0.94318601       1.41672120
H        4.12714075      -0.58941449       0.76685049
H        3.18972319       0.24939394       2.02481804
H        3.42599966       1.97950095      -1.99431665
H        4.86685593       2.07447129      -0.85833336
H        1.95920519       3.02370748      -0.27449199
H        4.50342792       3.14100115       1.50470897
H        2.86871851       3.53389026       2.07867031
H        3.64754191       4.53841041       0.83485069
