15
Properties=species:S:1:pos:R:3 -1539.9646890558574=T 10.705497=T 11.34561=T -8.2017=T -6.2204=T -8.88=T 1.0056=T -0.1139=T 0.766=T 8.42034=T -0.16595=T 5.0478048222=T 10.990181033=T 0.145744934=T pbc="F F F"
C        1.36658912       0.11002622       0.52062150
C        2.70717203      -0.07774145      -0.13766616
C        3.45077159       1.04244217      -0.80521451
C        4.08011440       0.37439763       0.41619646
C        4.91327390      -0.81495887       0.14595918
N        4.29658194      -1.78842938      -0.45827948
N        2.99183287      -1.38378880      -0.72310295
H        1.28241287       1.12188768       0.93881215
H        1.21441835      -0.61167633       1.33757875
H        0.55212984      -0.01243381      -0.21014175
H        3.06182061       2.04904790      -0.64798320
H        3.90076320       0.85828112      -1.78201037
H        4.21654812       0.95961547       1.32840845
H        5.95971254      -0.93440324       0.42459707
H        2.32877862      -2.13137631      -0.51689515
