19
Properties=species:S:1:pos:R:3 -1805.578845821614=T 12.217619=T 13.63869=T -8.6261=T -6.464=T -9.977=T 0.9355=T 0.0198=T 3.183=T 9.52023=T -2.84121=T 8.0809239346=T 11.9561063646=T 0.154860071=T pbc="F F F"
C        1.16016561       0.94568984      -0.91472720
N        2.36297731       1.25169506      -0.14572756
C        3.45338934       1.76642976      -0.97627742
C        4.71391897       1.96203029      -0.17020941
C        5.64614427       0.78359444       0.08086490
C        6.08205277       1.89962392      -0.82559141
N        7.20468221       2.73414301      -0.44840251
H        0.40200615       0.50159299      -0.25466747
H        1.32728233       0.25497905      -1.76974168
H        0.73927100       1.87849627      -1.32204767
H        2.69071982       0.40715529       0.33063660
H        3.12353912       2.73284928      -1.39959845
H        3.67704394       1.10602379      -1.84739327
H        4.62030978       2.66809233       0.66018315
H        5.40148334      -0.18047047      -0.37007542
H        6.12489568       0.71133894       1.05971538
H        6.08154887       1.66414504      -1.89451836
H        7.30019593       2.76063766       0.56926716
H        7.04536355       3.69890351      -0.75185935
