17
Properties=species:S:1:pos:R:3 -1601.6126684910203=T 11.186707=T 11.67057=T -9.1926=T -7.19=T -10.254=T 0.8068=T -0.1317=T 0.825=T 9.62049=T -0.32387=T 4.933154968=T 8.8701940134=T 0.272080471=T pbc="F F F"
C       -1.00295407      -1.19891532       0.53781338
C        0.10049249      -2.03867942      -0.08654709
C       -0.02207522      -3.52474068       0.21903572
O       -0.00111163      -1.77251000      -1.52197999
N        1.12203258      -2.31657072      -2.19982764
C        0.79321243      -3.17266040      -3.25995464
N       -0.30433537      -3.78038012      -3.50022590
H       -0.87699842      -0.13650777       0.29095432
H       -0.98288687      -1.30923871       1.63022138
H       -1.98847978      -1.52720914       0.17719489
H        1.08821207      -1.67056874       0.24678464
H       -1.01690504      -3.90027253      -0.06204843
H        0.12255804      -3.70201680       1.29458886
H        0.73969885      -4.09787093      -0.32564629
H        1.73634359      -1.54435005      -2.47899734
H        1.67407839      -3.34497796      -3.89770884
H       -1.01819205      -3.47838071      -2.82006703
