10
Properties=species:S:1:pos:R:3 -1102.7194040841093=T 8.479928=T 9.15458=T -10.4998=T -8.3422=T -10.952=T 0.3365=T -1.5686=T -0.698=T 10.35205=T 1.2218=T 3.8555182504=T 10.9391235982=T 0.27341058=T pbc="F F F"
C        1.44962945      -0.40288052       0.93515527
O        2.82993100      -0.23921954       0.52693756
C        3.23740939       1.05408880       0.44283971
O        2.53949760       2.02416213       0.68040973
C        4.62124611       1.13281105       0.03097455
C        5.77522763       1.28782908      -0.30935565
H        1.28320020      -1.48396405       0.95317471
H        0.77868559       0.08459185       0.21628275
H        1.29120455       0.03427851       1.92931960
H        6.79480848       1.42267269      -0.61010824
