10
Properties=species:S:1:pos:R:3 -968.5530003120717=T 6.058154=T 6.47572=T -9.5912=T -7.2138=T -11.476=T 1.0372=T 0.0794=T 3.191=T 10.90196=T -3.00546=T 9.3887406612=T 15.7468667272=T 0.392692796=T pbc="F F F"
C        0.35446348       1.07880893      -0.06110893
C        0.97907408      -0.30670707       0.19335374
O       -0.32738696      -0.95319044       0.14339207
C       -0.99017900       0.34553669       0.10849008
H        0.58241215       1.86254034       0.67133731
H        0.52539464       1.46322959      -1.07416915
H        1.44841736      -0.42529745       1.18590506
H        1.65810314      -0.70008186      -0.57938592
H       -1.70743168       0.41463121      -0.72444251
H       -1.51308721       0.55555006       1.05821826
