19
Properties=species:S:1:pos:R:3 -1815.1661445810394=T 12.401307=T 13.28813=T -8.9573=T -6.713=T -9.154=T 0.8758=T -0.1585=T 1.485=T 8.53251=T -0.82634=T 6.428240149=T 0.385496418=T pbc="F F F"
C        0.94854484      -0.14635586      -0.01801502
C        2.44889365       0.14261377      -0.14073156
N        3.06222235      -0.37894152      -1.38642323
C        2.82403443       1.61381072      -0.00848769
C        1.94767742       2.61998075      -0.13640988
C        4.29381938       1.85227484       0.26679061
N        4.69282774       3.25867934       0.12125021
H        0.53652134       0.22869935       0.93087227
H        0.77177714      -1.23111877      -0.06116619
H        0.38462192       0.31438933      -0.84354096
H        2.96098849      -0.38937488       0.68448844
H        2.58369139       0.04714386      -2.18655466
H        2.88901984      -1.38580743      -1.45348968
H        0.88800292       2.44519577      -0.32253550
H        2.28406949       3.65211387      -0.03193624
H        4.86453289       1.14607718      -0.36603881
H        4.49226565       1.55639669       1.31352157
H        4.66589440       3.51663021      -0.86981948
H        5.66544473       3.36611278       0.41604582
