18
Properties=species:S:1:pos:R:3 -1778.1013505058656=T 11.449104=T 12.48317=T -9.4684=T -7.4326=T -10.579=T 0.7082=T -0.2523=T 0.377=T 9.91197=T 0.19141=T 4.3394108112=T 9.2238020854=T 0.199362675=T pbc="F F F"
C        0.79553727      -1.21922601       0.05784765
C        2.23521117      -0.83327851      -0.29433473
C        2.91539865      -1.91880390      -1.13498153
C        2.30642037       0.51325387      -1.03980758
N        1.79551147       1.65088547      -0.28148873
C        2.59566218       2.45517213       0.47933653
O        3.80901157       2.32946940       0.60986896
H        0.31460194      -0.46207100       0.69472774
H        0.76691607      -2.17234953       0.60551930
H        0.18500374      -1.34142959      -0.85242146
H        2.80543609      -0.70829687       0.64235698
H        2.39614589      -2.05879003      -2.09713500
H        2.90686235      -2.88516200      -0.61090841
H        3.96295256      -1.66240112      -1.35089062
H        1.74390510       0.44763552      -1.98608549
H        3.35369357       0.74388866      -1.28148964
H        0.80032638       1.85376314      -0.29135673
H        2.01254363       3.26603036       0.97562275
