12
Properties=species:S:1:pos:R:3 -1264.9703463533488=T 9.258483=T 9.6159=T -9.3118=T -7.1612=T -9.46=T 1.1952=T -0.7343=T -0.223=T 10.73878=T 0.79196=T 4.356186117=T 6.3118916866=T 0.358132862=T pbc="F F F"
C        0.67319342       0.07141288      -0.11181643
C        2.10614562       0.02427748       0.31506879
C        3.00230752       0.95823567      -0.01119930
O        4.32198032       0.83016463       0.43206624
C        5.19712384       1.82304942       0.08815040
O        4.94550912       2.81051115      -0.56332984
H        0.40795890      -0.81822445      -0.70440430
H        0.45797785       0.96168787      -0.71802438
H        0.00133853       0.08120356       0.76079768
H        2.43546103      -0.82095526       0.92646400
H        2.80581910       1.84723689      -0.61075467
H        6.18422475       1.56348017       0.51358181
