18
Properties=species:S:1:pos:R:3 -1743.6189020396648=T 11.959559=T 12.72125=T -9.2216=T -7.1101=T -9.538=T 1.0548=T -0.3047=T 1.225=T 8.91534=T -0.59728=T 6.5389968428=T 0.42316822=T pbc="F F F"
C        1.32376083      -0.17806333       0.00561061
N        2.74941647      -0.41052217      -0.23995811
C        3.55255967       0.82798747      -0.16065935
C        5.02832052       0.52634455      -0.28333775
C        5.76909012       1.04235332      -1.27399709
C        5.61418584      -0.36397759       0.79098328
O        5.00667608      -1.65742113       0.84943527
H        0.76963519      -1.11520370      -0.13715541
H        0.88186896       0.59703033      -0.65144424
H        1.18255085       0.14178986       1.04849842
H        2.87271565      -0.80903133      -1.17554204
H        3.35642620       1.26786971       0.83430740
H        3.24543150       1.58197011      -0.91385551
H        5.33502805       1.70567269      -2.02620057
H        6.83691951       0.82980619      -1.35561894
H        5.51045564       0.15660260       1.76786791
H        6.68980633      -0.51360692       0.61231188
H        4.04677261      -1.50055067       0.66504426
