18
Properties=species:S:1:pos:R:3 -1771.8451585295238=T 11.757929=T 12.82769=T -9.0019=T -6.8838=T -8.986=T 0.9877=T 0.0378=T 1.481=T 8.4601=T -0.84077=T 6.2911860246=T 0.404996582=T pbc="F F F"
C        0.86991545       1.13374360      -1.26193151
C        2.35790628       0.95064200      -1.22054797
C        3.14884501       1.35124538      -0.21508313
C        4.64826106       1.21021829      -0.11328933
C        5.29695352       0.48700533      -1.29632919
C        5.29618034       2.59031310       0.11187196
H        0.56610833       1.74330349      -2.12886733
H        0.49747965       1.62603150      -0.35218849
H        0.35047855       0.16692325      -1.36494441
H        2.80465395       0.45017128      -2.08698136
H        2.67746636       1.85269137       0.64149286
H        4.84852160       0.61123885       0.79726295
H        5.14309043       1.04341373      -2.23432661
H        4.88724304      -0.52464541      -1.42936949
H        6.38136854       0.39345739      -1.13984964
H        5.14970694       3.23376818      -0.76943735
H        6.37767276       2.49217672       0.28881010
H        4.85582818       3.10363194       0.97942792
