15
Properties=species:S:1:pos:R:3 -1491.9727322757237=T 10.50879=T 11.42198=T -9.6148=T -7.3909=T -10.699=T 1.2536=T -0.4989=T 0.245=T 9.97439=T 0.36604=T 4.1199059968=T 12.3506422152=T 0.175813143=T pbc="F F F"
N        1.24647830       1.06285770      -1.80969653
C        2.22044335       0.55439765      -0.83609474
C        2.43035334       1.57346417       0.25735242
C        3.74159953       1.70306951       0.98633616
N        3.36119441       2.67370139      -0.02684606
C        3.09788192       4.00819384       0.27392699
O        3.75065193       4.69703138       1.03996781
H        1.00901554       0.33269579      -2.48403766
H        1.67158700       1.82361186      -2.34672227
H        3.20876585       0.29247896      -1.26332209
H        1.80678380      -0.36010233      -0.38109904
H        1.52866945       1.84690150       0.81646846
H        4.56560770       1.03807556       0.71642390
H        3.73009425       2.04744627       2.02307065
H        2.24936364       4.40336676      -0.32991801
