14
Properties=species:S:1:pos:R:3 -1342.6153844788507=T 8.811567=T 9.42079=T -8.7738=T -6.5601=T -10.002=T 0.9469=T -0.0254=T 3.252=T 9.55559=T -2.94147=T 7.9926087068=T 12.7638131616=T 0.318823952=T pbc="F F F"
C        0.89872124       0.04247374      -0.19330698
C        2.39143978      -0.02641306       0.05027656
N        2.71261158      -0.01507984       1.47088670
C        3.24951628      -0.78856553      -0.94831278
C        3.31229097       0.72985674      -0.86589189
H        0.67132174       0.06222669      -1.26774313
H        0.47640654       0.94337143       0.27501633
H        0.39142637      -0.83515683       0.23900630
H        3.72342157       0.05679659       1.60728765
H        2.42591902      -0.90348206       1.89507106
H        2.77107141      -1.23676118      -1.82127889
H        4.10266323      -1.34695230      -0.55948675
H        4.20844870       1.17541141      -0.42960195
H        2.87497155       1.31355417      -1.67727224
