16
Properties=species:S:1:pos:R:3 -1523.9853241832268=T 10.853632=T 11.5627=T -9.6618=T -7.5884=T -10.96=T 1.2733=T -0.6294=T 0.236=T 10.58362=T 0.27241=T 5.3433130546=T 6.69586393=T 0.48091113=T pbc="F F F"
C        3.75179075      -1.96179327      -0.87930249
C        4.14868475      -0.90609834       0.13354159
O        4.16495237       0.37214393      -0.53481185
C        4.35583890       1.46623644       0.30904301
O        5.72674711       1.67149021       0.70028411
N        5.98151779       1.03731618       1.93430284
C        7.21148405       1.15799228       2.27099960
H        3.73356597      -2.95125561      -0.40178928
H        4.47048560      -1.99240621      -1.70969511
H        2.75455131      -1.75521915      -1.29138560
H        5.14367725      -1.11857796       0.55811270
H        3.42917440      -0.86505757       0.97273678
H        3.75122622       1.39044197       1.23008245
H        4.10279480       2.35823216      -0.27875171
H        7.49296273       0.70694380       3.22294118
H        7.95383600       1.68088116       1.65734179
