13
Properties=species:S:1:pos:R:3 -1416.1356317262776=T 10.260104=T 10.30009=T -8.0512=T -6.0501=T -8.277=T 0.8026=T -0.7822=T 0.147=T 7.93438=T 0.38724=T 4.527844734=T 7.0062876782=T 0.360063573=T pbc="F F F"
C       -1.32164590       0.64589674       0.19979674
O       -1.42394357      -0.76142447      -0.00756578
C       -0.35342424      -1.50887003       0.41555527
C        0.93355493      -1.10187768       0.48147079
C        1.50003844       0.16244017       0.04767621
C        0.86707260       1.21531344      -0.51571313
O       -0.48378048       1.34159008      -0.72122490
H       -2.32910270       1.04035467       0.03381769
H       -0.96180607       0.83231736       1.22299967
H       -0.66160572      -2.51185362       0.71229894
H        1.63294645      -1.83976248       0.87750155
H        2.58080768       0.27319051       0.14895341
H        1.40572859       2.09636532      -0.86592647
