19
Properties=species:S:1:pos:R:3 -1806.9218973933096=T 11.883321=T 13.12818=T -8.7681=T -6.548=T -10.22=T 0.9111=T -0.0288=T 3.095=T 9.54872=T -2.79388=T 8.3681994966=T 13.3098847014=T 0.113213625=T pbc="F F F"
N        0.83834408       2.30757140      -0.36329490
C        2.27364534       2.31638884      -0.68980122
C        3.03625875       1.34785634       0.21408005
C        4.53323425       1.29913975      -0.07897509
C        5.36361946       2.48946933       0.48306914
N        5.72430798       1.65199508       1.65933795
C        5.35383066       0.42216536       0.90640783
H        0.33429444       2.94019951      -0.98900221
H        0.70115841       2.67710954       0.58166936
H        2.74178070       3.32078693      -0.62659572
H        2.37874459       1.98694128      -1.73752017
H        2.60003851       0.34208536       0.09350197
H        2.88796923       1.63169477       1.27163160
H        4.70522798       1.07958549      -1.14339542
H        4.81850435       3.41426453       0.73603251
H        6.21394540       2.74592531      -0.17533678
H        6.70473822       1.70536920       1.94255961
H        6.20081649      -0.08141417       0.40519019
H        4.79494114      -0.32109384       1.49874131
