15
Properties=species:S:1:pos:R:3 -1534.7400296549436=T 11.410746=T 11.52276=T -8.1948=T -6.2613=T -9.007=T 0.9515=T -0.1847=T 0.804=T 8.50648=T -0.1752=T 4.4049622094=T 6.322790056=T 0.252367838=T pbc="F F F"
C        1.05382785       1.16559209      -0.18489736
N       -0.17132054       1.44926687       0.58359968
N       -1.37292009       0.87123088       0.21972836
C       -1.47097490      -0.39145132      -0.01473240
C       -0.50565362      -1.54487284       0.10932022
C        0.97969477      -1.34794602       0.09900417
C        1.65475485      -0.19915113      -0.01095648
H        1.78537809       1.92627933       0.12680712
H        0.86584344       1.33143296      -1.26699401
H       -0.33420759       2.45620810       0.58125892
H       -2.49737299      -0.70119651      -0.24618793
H       -0.76323158      -2.28868636      -0.66824459
H       -0.77823676      -2.05956635       1.05414118
H        1.55588646      -2.27413564       0.18728250
H        2.74717262      -0.23820408      -0.02225939
