20
Properties=species:S:1:pos:R:3 -1928.199516227484=T 12.561283=T 13.74588=T -8.2622=T -6.3288=T -9.655=T 1.0179=T 0.1414=T 3.422=T 8.82459=T -3.19276=T 7.6589003878=T 12.0115900996=T 0.234548735=T pbc="F F F"
C        3.44865865      -0.66181380      -0.51652799
C        2.72067278       0.09241531       0.59198097
N        3.15814887       1.48700924       0.76541554
C        2.25791630       2.18391412       1.68639614
C        4.52566427       1.58762794       1.22053047
C        5.64369733       1.68542655       0.21026978
C        5.24523079       2.89805489       1.01901723
H        2.99939112      -1.65745773      -0.64166489
H        4.51354185      -0.80098993      -0.28880748
H        3.36750973      -0.12446274      -1.47240387
H        2.81495358      -0.47163593       1.54950447
H        1.64450770       0.12556478       0.35721138
H        1.23533177       2.17280466       1.28194546
H        2.57693385       3.22912856       1.79419066
H        2.23312285       1.72455522       2.69956183
H        4.76191590       1.04858139       2.15528069
H        5.35404515       1.68009141      -0.83992111
H        6.58802069       1.18988432       0.43840539
H        5.91158324       3.24644429       1.80819906
H        4.69705359       3.68031745       0.49307630
