14
Properties=species:S:1:pos:R:3 -1488.0550422657066=T 11.546388=T 12.91942=T -9.4488=T -7.4968=T -9.989=T 0.915=T -0.8284=T -0.12=T 9.49762=T 0.69659=T 3.6739903478=T 11.176965942=T 0.308073176=T pbc="F F F"
C        0.95686390      -0.04817259       0.00311994
C        2.49552482      -0.04420387      -0.00006935
C        3.06889931       1.29411287       0.00002915
C        3.52236314       2.42483060       0.00008369
C        3.96337900       3.81018752       0.00013703
N        5.32735288       3.96805169      -0.00003520
O        3.17574713       4.75625948       0.00031706
H        0.58072879      -1.08015681       0.00303143
H        0.56422410       0.46612279      -0.88362306
H        0.56791540       0.46461302       0.89236016
H        2.87334792      -0.58963157      -0.88157574
H        2.87701214      -0.59140783       0.87875104
H        5.95220549       3.17035601      -0.00016432
H        5.70361599       4.91044870      -0.00001184
