14
Properties=species:S:1:pos:R:3 -1507.0804434550928=T 10.540226=T 10.73874=T -8.3018=T -6.2886=T -8.246=T 0.818=T -0.7273=T 0.675=T 7.78486=T -0.13443=T 4.6508636432=T 7.2082112778=T 0.591384731=T pbc="F F F"
C        0.88029498       0.00147594       0.10266748
C        2.41805648       0.00028677       0.03673993
C        3.01758816       1.17710362      -0.68967950
C        3.84570062       0.73025239      -1.66481447
C        3.84477600      -0.73642064      -1.66266546
C        3.01592622      -1.17938790      -0.68639345
H        0.51212666       0.89167272       0.63203841
H        0.51083239      -0.88674531       0.63445370
H        0.45320390       0.00041158      -0.90978864
H        2.80637369       0.00146173       1.07630196
H        2.79975232       2.21439149      -0.43906863
H        4.42739163       1.34696283      -2.35003343
H        4.42559532      -1.35585597      -2.34616010
H        2.79673163      -2.21567926      -0.43285780
