21
Properties=species:S:1:pos:R:3 -2067.311014658699=T 13.476961=T 15.30503=T -9.4979=T -7.2883=T -9.523=T 0.9656=T 0.0682=T 1.381=T 8.98799=T -0.80783=T 6.6816923302=T 0.429654981=T pbc="F F F"
C        0.95802804       0.45052507      -1.26566791
C        2.38946758       0.31045863      -0.74408053
C        3.04874214       1.65500706      -0.42303221
C        4.49004094       1.52797919       0.07968375
C        5.12811489       2.88002502       0.39925543
C        6.55027206       2.85602349       0.88628140
C        7.32182299       1.77623659       1.06230121
H        0.51071542      -0.52908478      -1.48774189
H        0.92847539       1.04778003      -2.19030557
H        0.31245348       0.95231693      -0.52816258
H        3.00310427      -0.22505412      -1.48939637
H        2.39310042      -0.32064452       0.16174247
H        2.44145768       2.18555375       0.33304627
H        3.03141272       2.29200675      -1.32630027
H        5.09592653       1.00528699      -0.68104403
H        4.50870963       0.88988291       0.98056555
H        4.51331908       3.40750521       1.15317390
H        5.08128228       3.52900086      -0.49601490
H        6.97603224       3.84073765       1.11284773
H        6.96559004       0.76468321       0.85726904
H        8.34741218       1.87296408       1.42133951
