16
Properties=species:S:1:pos:R:3 -1686.0857862446744=T 12.307876=T 13.07349=T -9.5553=T -7.5715=T -9.335=T 0.2967=T -1.3156=T -0.002=T 8.75562=T 0.58868=T 4.9571338604=T 10.5772952544=T 0.295414219=T pbc="F F F"
C        2.09261012      -0.69430805       1.45027283
C        2.64563324      -0.19834777       0.10252797
C        3.00994071       1.26459938       0.09780301
C        1.89682801       2.25872089       0.24238767
C        4.30596187       1.63817761      -0.03612215
C        4.74465903       2.99010871      -0.04710812
N        5.13135011       4.09566613      -0.06188950
H        1.86787875      -1.76820388       1.39511607
H        1.16525357      -0.17547209       1.72927579
H        2.82497817      -0.54043064       2.25548844
H        1.88641314      -0.37262934      -0.68000112
H        3.52791213      -0.79541230      -0.17269253
H        1.15026471       2.11146468      -0.55432176
H        2.25721961       3.29313268       0.19851471
H        1.36756952       2.11833424       1.19732020
H        5.08957732       0.88460976      -0.14673151
