17
Properties=species:S:1:pos:R:3 -1726.016099795477=T 12.425282=T 13.39339=T -8.9003=T -6.757=T -9.514=T 1.5206=T -0.0903=T 1.169=T 9.08933=T -0.71175=T 6.4073733052=T 6.6950952168=T 0.435520778=T pbc="F F F"
C        4.47180157      -1.65761488      -1.32611527
C        3.94599936      -0.96815371      -0.30771363
C        2.85728698       0.05788979      -0.43224454
C        3.32707846       1.43727064       0.02194009
O        2.19892327       2.32549809      -0.01767717
C        2.43335193       3.61337182       0.36239193
C        3.58729190       4.16573583       0.76882046
H        5.26108412      -2.39389489      -1.16872436
H        4.12363491      -1.51343528      -2.35222918
H        4.32618911      -1.14664104       0.70532565
H        1.99735991      -0.23015531       0.19616360
H        2.49889038       0.11570642      -1.47119614
H        4.12302876       1.81944670      -0.64116202
H        3.72676341       1.40027844       1.05188309
H        1.50755011       4.18910356       0.29620563
H        4.52587984       3.62073292       0.84363336
H        3.58934598       5.21981092       1.03818850
