15
Properties=species:S:1:pos:R:3 -1483.3472556290626=T 11.280422=T 11.78691=T -8.4573=T -6.447=T -9.161=T 0.933=T -0.902=T 0.176=T 8.5712=T -0.09194=T 3.7477620178=T 5.3524012284=T 0.358555887=T pbc="F F F"
C        1.20251847      -0.65363938      -0.51225673
C        2.61248767      -0.33019770      -0.07428456
O        3.42465293      -1.19875261       0.21715594
C        2.97511703       1.14409268      -0.00230215
N        4.25322846       1.33296194       0.64135325
N        4.92123556       2.47010245       0.31439156
C        6.18685068       2.52508646       0.54657277
H        0.80585624       0.09036682      -1.21625540
H        0.55139956      -0.64805895       0.37587156
H        1.17138183      -1.65648476      -0.95234293
H        2.16765916       1.68776680       0.52179313
H        2.97458027       1.52680048      -1.04202212
H        4.79195434       0.45861019       0.71264812
H        6.69782762       3.46014752       0.31786599
H        6.76458019       1.68667806       0.96715157
