17
Properties=species:S:1:pos:R:3 -1670.5529632376345=T 12.568442=T 12.93392=T -8.6981=T -6.8388=T -9.365=T 0.8873=T -0.7875=T 0.533=T 8.76202=T 0.09506=T 4.1590731742=T 5.6329691478=T 0.502170836=T pbc="F F F"
C        2.10455980      -0.33684169       1.51256758
C        2.24833362       0.03022780       0.02769722
C        2.48574261       1.49912972      -0.20418834
C        1.41858275       2.48671466       0.18201385
N        3.61800819       1.84223455      -0.72562519
N        3.81009640       3.16117575      -1.03113323
C        4.76091385       3.78085637      -0.43229421
H        1.92336439      -1.41454720       1.62755809
H        1.26566674       0.19393675       1.98569786
H        3.02049398      -0.08571475       2.06676614
H        1.32567805      -0.26011725      -0.50599754
H        3.08174898      -0.52495852      -0.42438323
H        0.42671664       2.01543221       0.20455427
H        1.42286567       3.32722105      -0.52795784
H        1.60903290       2.91270222       1.17989731
H        4.95980002       4.81150031      -0.73348521
H        5.37384542       3.31911800       0.35525248
