13
Properties=species:S:1:pos:R:3 -1329.8604910893591=T 13.180659=T 12.78156=T -7.8031=T -6.0368=T -8.595=T 0.7108=T -0.8027=T -0.154=T 8.00319=T 0.76936=T 4.3779704572=T 4.4767129076=T 0.307087269=T pbc="F F F"
C        0.98083777      -0.12238406       0.01640451
N        2.42670864      -0.13799589      -0.01869429
C        3.03284155       0.98616523      -0.03376996
S        2.20338942       2.63985629      -0.07699171
N        3.74823682       3.45918320      -0.17575142
C        4.79191066       2.55535821      -0.06153987
C        4.45728030       1.24180576      -0.05412502
H        0.59492170      -1.11819993       0.27222468
H        0.56347357       0.15891371      -0.96879992
H        0.59100682       0.60195762       0.76265220
H        3.79784852       4.30574994       0.39285688
H        5.80088921       2.96461390      -0.02344064
H        5.16849503       0.42041603      -0.05830544
