13
Properties=species:S:1:pos:R:3 -1424.6406191644967=T 10.873934=T 11.31545=T -9.5068=T -7.3573=T -9.383=T 0.1603=T -1.5162=T -0.154=T 8.91925=T 0.6671=T 4.9512941198=T 5.0818389792=T 0.258019604=T pbc="F F F"
N        0.96562964       0.06972909       0.00275813
C        2.13420191      -0.00405663      -0.02225968
C        3.55044437      -0.02073308      -0.05455226
C        4.34555458      -1.10712080      -0.10551339
C        5.79117909      -0.68297520      -0.04697958
N        5.77871663       0.78471350      -0.24391514
C        4.40806611       1.24089016       0.05598857
H        4.00333181      -2.14119732      -0.12266983
H        6.21611458      -0.94375307       0.94258535
H        6.42462822      -1.17751451      -0.79904331
H        5.95967735       0.96683041      -1.23275649
H        4.09353266       2.04181434      -0.62741658
H        4.33697304       1.63909313       1.08458420
