17
Properties=species:S:1:pos:R:3 -1659.0087530193498=T 12.926605=T 13.4898=T -7.8658=T -5.9334=T -8.739=T 1.3446=T -0.0159=T 0.835=T 8.23198=T -0.21599=T 4.911643397=T 5.2929871372=T 0.23077963=T pbc="F F F"
C        1.37868842      -0.25283877      -0.71914078
N        2.79009944      -0.23032732      -0.35345945
N        3.35292557       1.02036049      -0.41402360
C        4.35841359       1.27886139       0.34809193
C        5.06583769       2.56784498       0.26840190
C        5.65314294       3.18452542       1.52881300
C        6.57176761       2.61766449       0.48348083
H        1.04352938      -1.29811927      -0.75062689
H        1.26979969       0.17978868      -1.72185319
H        0.73098272       0.31187516      -0.02322192
H        2.98358079      -0.73026287       0.52518074
H        4.73311705       0.53802040       1.08327316
H        4.65126070       3.25465582      -0.47097433
H        5.53353822       2.62883772       2.46035606
H        5.58497951       4.26737080       1.63512660
H        7.14373583       3.30534745      -0.13979379
H        7.07628085       1.67534543       0.70222973
