20
Properties=species:S:1:pos:R:3 -1882.4784269140405=T 11.949649=T 13.20175=T -8.9965=T -6.8401=T -10.402=T 0.9538=T -0.0013=T 3.115=T 9.72417=T -2.82825=T 8.4404337402=T 11.4359850946=T 0.121564899=T pbc="F F F"
C        2.88994206      -0.92657787      -0.96638949
C        2.48434248      -0.03606754       0.21116233
C        2.99179432       1.41933412       0.12943943
N        2.47561731       2.30192904       1.18947996
C        4.51549297       1.52357031       0.12885182
O        5.02165995       0.96930937       1.34506765
C        6.42704963       1.13017618       1.45349822
H        2.41089670      -1.91368063      -0.89662418
H        3.97642985      -1.09316123      -0.99719388
H        2.59074891      -0.48146601      -1.92861535
H        2.83756766      -0.47722266       1.15716057
H        1.38321715       0.00226846       0.27319850
H        2.66273946       1.84334616      -0.83833853
H        2.85363198       1.98237631       2.08671399
H        1.45940733       2.20280152       1.25406103
H        4.79985643       2.59077933       0.05421172
H        4.94725270       0.98819762      -0.73950918
H        6.73404310       0.68222897       2.40738209
H        6.71458855       2.19875513       1.44578944
H        6.95921143       0.61938343       0.62798386
