17
Properties=species:S:1:pos:R:3 -1766.2019716917198=T 12.471408=T 14.24691=T -9.8135=T -7.5321=T -9.763=T 0.9454=T 0.0612=T 2.335=T 9.35274=T -1.9269=T 4.3682003604=T 10.5299078052=T 0.271326796=T pbc="F F F"
C        1.25265385      -0.26840147       0.28748526
C        2.71127989      -0.15866839      -0.09486321
C        3.16721230      -0.47931701      -1.50305356
C        3.18937826       0.94699075      -1.00585324
C        4.51697992       1.64191860      -0.73287633
C        5.11388268       2.24210844      -1.92318719
C        5.59498659       2.74083800      -2.92018305
H        1.01336860       0.37202493       1.15023993
H        0.98647337      -1.30315700       0.55230352
H        0.60326755       0.03816121      -0.54616072
H        3.41339892      -0.44355882       0.69543889
H        2.40601060      -0.75379510      -2.23522988
H        4.12556131      -0.98459039      -1.63580539
H        2.41544606       1.60670583      -1.40764062
H        5.22709493       0.91566138      -0.30090910
H        4.37694911       2.42534381       0.03237464
H        6.02064605       3.17815521      -3.79989995
