18
Properties=species:S:1:pos:R:3 -1790.6094106648504=T 12.326417=T 13.44259=T -9.2666=T -7.1214=T -9.46=T 0.956=T 0.0146=T 1.357=T 8.90743=T -0.76195=T 6.6412109012=T 0.481390132=T pbc="F F F"
C        1.74473906      -0.14350766       0.45608309
C        2.61574312       0.08852095      -0.78047018
C        2.09153168      -0.53516829      -2.05085670
C        0.96757546      -1.24808712      -2.19140884
C        2.84865292       1.57823976      -1.00944888
C        3.97032188       2.30825696      -0.36021998
N        4.04579452       1.94309253      -1.79486466
H        2.20170141       0.32225015       1.34053742
H        1.62263902      -1.21605168       0.66224798
H        0.74190777       0.29189686       0.32697664
H        3.61714024      -0.34649975      -0.59996148
H        2.72188787      -0.35336134      -2.92833117
H        0.30315055      -1.46239047      -1.35183178
H        0.67525871      -1.64998005      -3.16264459
H        1.93332830       2.15378490      -1.19241352
H        4.66591104       1.76007745       0.28117702
H        3.81884013       3.35544254      -0.08690471
H        3.84842630       2.76712424      -2.37070568
