12
Properties=species:S:1:pos:R:3 -1267.0236306071445=T 10.697656=T 10.25501=T -9.4735=T -7.535=T -9.829=T -0.6=T -2.3677=T -1.722=T 9.26253=T 2.14359=T 3.1518853018=T 4.4767377048=T 0.344815688=T pbc="F F F"
O        1.21428385      -0.48214477       0.14356029
N        2.59492642      -0.35966614       0.04862647
C        3.00008894       0.88609539       0.04123854
C        2.13250532       2.05583435       0.12193438
C        2.55252260       3.33479429       0.11004969
C        4.48829046       0.92206904      -0.06352554
O        5.17623020       1.93052640      -0.09420651
H        1.09342913      -1.44962339       0.13518750
H        1.06595167       1.83676805       0.19641498
H        3.60808626       3.59099897       0.03708173
H        1.82502441       4.14498922       0.17513907
H        4.93417074      -0.10013142      -0.11463061
