16
Properties=species:S:1:pos:R:3 -1588.5433417453753=T 10.065492=T 11.29294=T -9.6722=T -7.4329=T -10.985=T 1.3135=T -0.7567=T -0.009=T 10.09289=T 0.62672=T 3.6779702984=T 13.6632695986=T 0.206030014=T pbc="F F F"
C        1.11408669      -0.40981664       0.03512544
C        2.64313340      -0.36805834       0.00319759
C        3.19728662       1.05893205      -0.03444810
C        4.72077033       1.11135903      -0.07727490
C        5.32042047       2.49406336      -0.11268501
O        4.69011058       3.53583141      -0.09920836
H        0.74007217      -1.44306408       0.06376874
H        0.68515228       0.07693368      -0.85399117
H        0.72079124       0.11322305       0.92008180
H        3.00812220      -0.92725805      -0.87599050
H        3.04451644      -0.89473289       0.88659626
H        2.84229354       1.62188667       0.84410732
H        2.79451340       1.59362350      -0.91017151
H        5.12538360       0.56868546      -0.95336095
H        5.17325230       0.59444992       0.79119800
H        6.44238474       2.50947185      -0.15499466
