15
Properties=species:S:1:pos:R:3 -1457.5437463415806=T 10.850925=T 11.45956=T -8.6822=T -6.6815=T -10.122=T 1.038=T 0.1795=T 0.743=T 9.6176=T -0.15658=T 4.9710574882=T 6.4338567148=T 0.294521159=T pbc="F F F"
C        3.20261627      -0.45089810       1.59823719
O        2.31110819       0.52545038       1.01903632
C        2.86204995       1.35148299       0.10985021
N        4.09391256       1.29173784      -0.23765850
N        4.37952797       2.30919380      -1.22923096
C        5.40238259       1.80476712      -2.17881331
C        5.79139964       2.74569442      -1.09986478
H        2.58890207      -1.02319882       2.30159260
H        4.03188392       0.04829491       2.11842887
H        3.61583657      -1.10437564       0.81746971
H        2.13685958       2.07027378      -0.28937396
H        5.27142584       2.15393102      -3.20446477
H        5.69304182       0.75987515      -2.05642127
H        6.34278415       2.33141995      -0.25395384
H        5.95474887       3.80350119      -1.31295351
