16
Properties=species:S:1:pos:R:3 -1606.4612048526944=T 10.955109=T 11.87586=T -8.848=T -6.7743=T -10.272=T 1.0332=T -0.8851=T 0.057=T 9.92415=T 0.58695=T 3.713752658=T 8.0759644946=T 0.17781966=T pbc="F F F"
C        0.98480307      -0.13453450       0.08451815
N        2.43349477      -0.08649744       0.08681147
C        3.09733030       1.04974705       0.75962124
C        4.20628087       0.07538795       1.26394956
C        3.16284223      -1.03815174       0.95031951
C        5.39731286       0.03218379       0.34753073
O        6.55364379       0.15563486       0.70985475
H        0.64726325      -1.07942616      -0.36535735
H        0.58632661       0.68854719      -0.52639738
H        0.54835754      -0.05705341       1.10516630
H        2.52134830       1.45594270       1.61663655
H        3.39565452       1.87858342       0.09741414
H        4.53283113       0.18458367       2.30412909
H        3.51570984      -1.95222674       0.44549445
H        2.60701943      -1.31895827       1.86840163
H        5.14334149      -0.12603240      -0.73335284
