20
Properties=species:S:1:pos:R:3 -1939.255246766872=T 12.302294=T 13.53225=T -9.0367=T -6.9138=T -10.5=T 0.8795=T -0.054=T 2.877=T 9.81006=T -2.49675=T 8.3044830912=T 11.3670612772=T 0.136341229=T pbc="F F F"
C        1.12090525       0.28579029       0.09476332
C        2.62681034      -0.04644012       0.00272658
C        3.02589652      -0.91098878       1.20728000
N        2.96491341      -0.82384788      -1.21669580
C        3.40153621       1.27329943      -0.08482070
C        3.93301147       2.01722507       1.11792381
C        4.88837764       1.37641987       0.13566228
H        0.79550467       0.85743739      -0.78815052
H        0.89391130       0.88623590       0.98962058
H        0.52104713      -0.63668395       0.14242852
H        2.75905682      -0.43088153       2.15868238
H        4.10088531      -1.13476285       1.20085579
H        2.49029185      -1.87150255       1.16267039
H        2.77692549      -0.25065717      -2.04497813
H        2.33572558      -1.63005307      -1.28603977
H        3.01319858       1.91985696      -0.88033503
H        3.83764776       1.55082402       2.09923122
H        3.84605363       3.10443180       1.12847223
H        5.45908831       2.02315957      -0.53165421
H        5.42051272       0.47969760       0.45402706
