19
Properties=species:S:1:pos:R:3 -1826.3343808666252=T 11.783592=T 12.75195=T -8.5986=T -6.4395=T -10.069=T 0.9183=T -0.0214=T 3.139=T 9.3441=T -2.82283=T 8.2796362968=T 11.193952024=T 0.129945171=T pbc="F F F"
N        1.72170888      -0.21460568      -1.26429074
C        2.30189572       0.18616111       0.02528367
C        3.31016047       1.33029251      -0.14780024
C        2.66816579       2.60291877      -0.77709606
C        2.85727238       3.70538306       0.28193663
N        2.93671494       2.94017223       1.53364478
C        3.83929735       1.82539440       1.21721614
H        0.98287514      -0.90527404      -1.11728183
H        2.43340325      -0.67555076      -1.83803477
H        2.80171838      -0.64297261       0.56798353
H        1.48262177       0.54576640       0.66944748
H        4.14823109       0.96583429      -0.76536880
H        1.60425682       2.41217972      -0.97574550
H        3.13147650       2.87678354      -1.73449396
H        3.78733343       4.27749155       0.07066119
H        2.02081322       4.41955172       0.31316520
H        3.28840589       3.50692528       2.30763768
H        4.89979568       2.14289031       1.11344284
H        3.79275331       1.05027818       1.99865275
