19
Properties=species:S:1:pos:R:3 -1876.3292707851308=T 12.52314=T 13.59392=T -9.1271=T -7.0069=T -8.962=T 1.1408=T -0.1594=T 1.277=T 8.35831=T -0.59876=T 6.0753387972=T 0.387524302=T pbc="F F F"
C        2.18809572      -0.38675789       1.38169459
C        2.53717876       0.18735185      -0.00164660
C        2.90248252       1.65733256       0.01372931
C        1.77049953       2.60383238       0.31992789
C        4.16867532       2.03982177      -0.25493596
C        4.73373758       3.42642790      -0.25583666
O        5.78854733       3.57804973       0.71849396
H        1.96038217      -1.45973535       1.30781169
H        1.31011859       0.10557256       1.82382579
H        3.03059821      -0.26641693       2.07860453
H        1.67493848       0.03849497      -0.67628181
H        3.37347532      -0.38560244      -0.43044553
H        1.00076020       2.54468265      -0.46738707
H        2.08931692       3.64945974       0.39787609
H        1.27145562       2.33180171       1.26283059
H        4.90426573       1.25672635      -0.47357663
H        3.95320567       4.19129517      -0.10380069
H        5.21728155       3.64123732      -1.22197492
H        5.44069479       3.23502596       1.56123141
