18
Properties=species:S:1:pos:R:3 -1767.7627182538572=T 11.016025=T 12.2925=T -10.074=T -7.8824=T -11.351=T 1.0029=T 0.1295=T 3.053=T 10.98414=T -2.71623=T 9.3498214558=T 11.8402786434=T 0.232001612=T pbc="F F F"
C        1.15545312       0.19752976       0.15808311
C        2.65105798      -0.02711685      -0.10360407
C        2.87867599      -0.80227673      -1.40861937
C        3.40666160       1.29243675      -0.11452327
C        3.84378682       1.94014905       1.17737507
C        4.87321108       1.34304823       0.24078013
H        0.99259022       0.72624729       1.10850734
H        0.60827171      -0.75629943       0.19818858
H        0.70718401       0.80522156      -0.64471214
H        3.05795218      -0.63155893       0.72969220
H        2.49605832      -0.23259669      -2.27104991
H        2.35930694      -1.77225191      -1.39393459
H        3.94887890      -0.98907907      -1.57924929
H        3.08709864       1.98123091      -0.90484983
H        3.63677374       1.40437480       2.10617674
H        3.79128333       3.02622840       1.26200724
H        5.52253838       2.02199533      -0.31319475
H        5.35118705       0.40988753       0.54626683
