15
Properties=species:S:1:pos:R:3 -1456.6835137480148=T 11.146274=T 11.83166=T -8.5287=T -6.5276=T -9.191=T 1.5002=T -0.2758=T 0.628=T 8.61735=T -0.11631=T 4.8309781054=T 5.4057772014=T 0.391051771=T pbc="F F F"
C        1.42476903       1.02917085       0.54190576
N        2.70537383       0.90113925       0.57018753
N        3.47434556       1.92991817       0.12179591
C        4.80674123       1.55201421      -0.33667844
C        5.69006272       2.76854508      -0.41348977
C        6.72538074       2.90076928      -1.45020173
O        5.48796271       3.62862575      -1.56363778
H        0.82876104       0.22061272       0.96481143
H        0.91177867       1.91345463       0.12887765
H        3.00103882       2.60221274      -0.49690382
H        4.78915084       1.04752691      -1.32197003
H        5.20824081       0.84053119       0.40056843
H        5.82072177       3.31781666       0.52678927
H        6.86074507       2.09475816      -2.17979818
H        7.60998718       3.51340441      -1.24878622
