14
Properties=species:S:1:pos:R:3 -1438.5471946530406=T 11.059313=T 12.31292=T -9.5057=T -7.3358=T -9.689=T 0.7655=T -0.31=T 2.115=T 9.30798=T -1.71235=T 4.3599800886=T 10.5865198128=T 0.528182401=T pbc="F F F"
O        2.81605027      -0.93548846      -0.78434094
C        2.34679256       0.08543220       0.10649055
C        3.37202054       1.18560052       0.14301351
N        3.48626109       2.15374461      -0.95715337
C        2.90661399       2.59898581       0.34274771
C        3.65660943       3.54353373       1.12501561
C        4.26226425       4.33794249       1.81506156
H        2.22703932      -1.70379834      -0.69833268
H        2.20551273      -0.31284739       1.12870897
H        1.37529865       0.49580073      -0.23593716
H        4.33848414       0.90948727       0.57438025
H        2.72019321       2.00292269      -1.62491854
H        1.82077254       2.73776330       0.38442881
H        4.80797729       5.04052083       2.41080572
