18
Properties=species:S:1:pos:R:3 -1685.3218742510717=T 10.808099=T 11.87839=T -9.367=T -7.0158=T -10.587=T 0.9857=T 0.0224=T 3.31=T 9.94001=T -3.11128=T 8.7440382584=T 13.343187341=T 0.117719509=T pbc="F F F"
C        2.32558906       1.83918226       1.99397969
O        2.52616721       2.63267355       0.82059355
C        3.09757149       1.90305774      -0.24401939
O        4.41645702       1.45327470      -0.00945095
C        5.37486870       2.52487595       0.08007113
C        6.73457028       1.91259066       0.35790108
N        6.74817841       1.27780015       1.68321675
H        1.79565645       2.47369702       2.71460707
H        3.28208479       1.51033546       2.43026154
H        1.70812770       0.95018997       1.76809754
H        3.06325652       2.58982689      -1.10909356
H        2.51748369       0.98423667      -0.44839875
H        5.09511544       3.21355953       0.89435859
H        5.39106368       3.08495725      -0.87475527
H        7.47681954       2.72678439       0.35274599
H        6.98761366       1.22956219      -0.47829812
H        6.09108842       0.49318981       1.67589102
H        7.67070794       0.87896583       1.86820208
