15
Properties=species:S:1:pos:R:3 -1667.4726038670158=T 11.8264=T 11.98773=T -7.9275=T -5.9988=T -7.874=T 0.7254=T -0.7717=T 0.479=T 7.48856=T 0.09625=T 4.2918869774=T 11.312730612=T 0.525606948=T pbc="F F F"
C       -1.43866628       0.81636873       0.54816519
C       -1.18032996      -0.43599840      -0.24745121
C       -0.24711131      -1.45059532       0.24921440
C        1.04073387      -1.15401023       0.56706675
C        1.63089005       0.11793233       0.20364903
C        0.91804034       1.06011200      -0.46845380
C       -0.53285685       0.95905718      -0.64666849
H       -2.43326214       1.25354871       0.46311150
H       -0.97484052       0.88323834       1.53304406
H       -2.01076084      -0.78843051      -0.86341469
H       -0.60788576      -2.47891359       0.32344992
H        1.69055868      -1.93112680       0.97417235
H        2.70416972       0.25387277       0.35029615
H        1.42813569       1.90860280      -0.93006116
H       -0.96116469       1.47243200      -1.51054001
