20
Properties=species:S:1:pos:R:3 -1941.6771798142515=T 12.896019=T 13.87556=T -9.2711=T -7.0448=T -9.176=T 0.9284=T -0.1027=T 1.454=T 8.51647=T -0.79035=T 6.4175649544=T 0.394916706=T pbc="F F F"
C        1.12761496      -0.29963130       0.49953132
C        2.41325797       0.07324020      -0.24310068
C        2.93155077      -1.13311211      -1.05245465
C        2.28928904       1.30848536      -1.12091585
C        1.12276829       1.90737031      -1.41007538
C        3.57912456       1.87163855      -1.68977328
N        4.55575440       2.16828598      -0.62472547
H        0.74713138       0.53754173       1.10239332
H        1.31481040      -1.14630967       1.17595242
H        0.33210429      -0.60702585      -0.19783075
H        3.19107415       0.31419747       0.50340359
H        2.22554372      -1.39444508      -1.85621870
H        3.04203036      -2.01050414      -0.39825651
H        3.91220029      -0.93476504      -1.50562453
H        0.16629860       1.53809320      -1.03926234
H        1.09368057       2.79601003      -2.04491835
H        3.32686203       2.73945382      -2.32883746
H        4.04443303       1.12043483      -2.35061247
H        4.23265423       2.97263916      -0.08020279
H        5.44908698       2.44040256      -1.04040142
