13
Properties=species:S:1:pos:R:3 -1374.0156623490623=T 9.812273=T 10.16877=T -9.1743=T -7.0922=T -9.872=T 0.7297=T -1.2252=T -0.139=T 10.13151=T 0.773=T 3.6782182704=T 7.6711254074=T 0.152945023=T pbc="F F F"
O        2.39423091      -1.00550006       0.44571103
C        2.14891308       0.13683380       0.10690609
C        3.17816585       1.24179322       0.01755336
C        3.53156928       1.56854092      -1.48099436
N        3.59726703       3.03657019      -1.57120931
C        3.09487681       3.48249644      -0.47797595
N        2.63664974       2.54116942       0.44741533
H        1.12005535       0.45579176      -0.20480303
H        4.07552690       0.94839344       0.58759500
H        2.74276351       1.20677049      -2.16365706
H        4.47678728       1.10297028      -1.78838604
H        2.97105606       4.54596267      -0.26000382
H        2.69233820       2.77600742       1.43680875
