16
Properties=species:S:1:pos:R:3 -1592.3894572339589=T 11.228501=T 12.14839=T -7.7764=T -5.7813=T -8.049=T 0.9731=T 0.1038=T 2.172=T 7.66203=T -1.75133=T 5.2388052552=T 11.5924926224=T 0.205346928=T pbc="F F F"
C       -1.68700643       0.97237646       0.34846718
C       -1.32873429      -0.34098472      -0.31687802
N       -0.39720899      -1.33997889       0.31046769
C        0.87358426      -0.76415318      -0.19343939
C        2.14767630      -0.01136293       0.04760080
C        0.78813197       0.73654511       0.04839998
C       -0.55566857       0.97558812      -0.65645874
H       -2.63962561       1.41639498       0.05069788
H       -1.43987587       1.12289300       1.40216882
H       -2.04276866      -0.76849898      -1.02311632
H       -0.44775189      -1.25304350       1.33077795
H        0.84294008      -0.94181919      -1.27549920
H        2.64058138       0.08223882       1.01806800
H        2.83977571      -0.03435862      -0.79889394
H        0.61672331       0.89945617       1.12034464
H       -0.67323270       1.47501737      -1.61871733
