18
Properties=species:S:1:pos:R:3 -1783.4995762287879=T 13.021028=T 14.85251=T -8.6496=T -6.567=T -9.129=T 0.8389=T -0.0328=T 2.525=T 8.82753=T -2.01711=T 4.155018832=T 10.3803682906=T 0.359843728=T pbc="F F F"
C        1.06283225      -0.15949705      -0.22338703
N        2.44333909       0.01236444       0.22613871
C        2.94688087       1.39307261       0.04966359
C        2.41493384       2.31278576       1.16306199
C        4.41106972       1.38498440       0.02300634
C        5.62686800       1.37680453      -0.00422380
C        7.08216433       1.37220240      -0.03275413
H        0.80782166      -1.22748516      -0.19525470
H        0.86990472       0.21944575      -1.25024693
H        0.37131157       0.35613083       0.45906042
H        3.05224120      -0.61225182      -0.30604217
H        2.60106519       1.81065995      -0.92536194
H        2.75428984       1.94679388       2.14105130
H        1.31664934       2.33438205       1.15515895
H        2.77766242       3.33875717       1.01698968
H        7.47972653       2.39818193      -0.02787302
H        7.46370184       0.87081162      -0.93481614
H        7.49564758       0.84983671       0.84286888
