18
Properties=species:S:1:pos:R:3 -1812.4329867515416=T 12.088118=T 12.90856=T -8.5132=T -6.3758=T -8.835=T 0.9618=T -0.026=T 1.432=T 8.4342=T -0.80057=T 5.9870855624=T 0.25679703=T pbc="F F F"
C        2.33898143      -0.42013798      -1.59188232
C        2.46346833       0.12617691      -0.16877113
C        3.48937941       1.27026256      -0.02374294
N        3.62249563       1.70422837       1.39745787
C        3.15357174       3.10698813       1.51124107
C        2.88826181       3.54237572       0.09472640
C        3.08825143       2.53060935      -0.75709694
H        1.65073752      -1.27650982      -1.62658286
H        3.31297961      -0.76408537      -1.97510932
H        1.95442659       0.33686204      -2.29147271
H        2.76993216      -0.67744114       0.51929008
H        1.48764453       0.49075206       0.19199381
H        4.46173431       0.89108275      -0.39597686
H        4.60321319       1.65834334       1.66812913
H        3.90323468       3.74229114       2.01435619
H        2.23178111       3.17344434       2.12166838
H        2.54013764       4.54217515      -0.16766716
H        2.94145887       2.57246245      -1.83635068
