15
Properties=species:S:1:pos:R:3 -1510.1137485597146=T 9.773899=T 10.89345=T -9.6941=T -7.5186=T -10.764=T 0.925=T 0.0107=T 2.387=T 10.40059=T -2.08116=T 8.1684828478=T 10.890372303=T 0.218243178=T pbc="F F F"
C       -1.76263589       0.68845646       0.22914058
O       -1.67028771      -0.67891518      -0.33182475
C       -0.26465722      -0.65629473       0.10942768
C        1.06728939      -1.01742593      -0.51084448
O        1.90217985       0.02187271       0.11274100
C        1.08684350       1.15012309       0.63107586
C       -0.24275874       0.84846474      -0.01699502
H       -2.45009928       1.31695071      -0.35119978
H       -2.05632715       0.65127246       1.29270133
H       -0.24900744      -0.96948898       1.17290942
H        1.49412484      -1.98410974      -0.21046650
H        1.07104417      -0.92260123      -1.60996470
H        1.07004220       1.10703632       1.73243424
H        1.57851761       2.07574895       0.30182227
H       -0.15030812       1.07255033      -1.09243715
