11
Properties=species:S:1:pos:R:3 -1215.838104050204=T 10.846903=T 9.76297=T -8.383=T -6.5846=T -8.937=T -0.9807=T -2.6823=T -2.081=T 8.11478=T 2.90555=T 1.5796188358=T 3.3723200112=T 0.481315379=T pbc="F F F"
O        2.95368855      -1.02773253       0.06525024
N        2.18900230      -0.03400382       0.04883808
C        2.84540598       1.18279148       0.03041383
C        2.28677973       2.47089901       0.00955132
C        3.35448031       3.38413295      -0.00371053
C        4.54144624       2.63932292       0.00925009
N        4.22172166       1.31968299       0.02971074
H        1.22186971       2.68134756       0.00514073
H        3.29381626       4.46788063      -0.02083628
H        5.57530475       2.97252113       0.00505345
H        4.83624452       0.50751768       0.04307832
