12
Properties=species:S:1:pos:R:3 -1220.8280065580045=T 8.869358=T 9.73028=T -10.302=T -7.9527=T -10.106=T 0.9206=T -0.2283=T 1.97=T 9.72949=T -1.59164=T 4.3830166874=T 10.6352215136=T 0.336097256=T pbc="F F F"
O        0.95992559      -0.00617313      -0.20781574
C        2.36940430      -0.04633013      -0.00430548
C        2.88079822       1.40259043       0.04310423
O        2.37247642       2.13817902       1.16258141
C        4.34575880       1.41725735      -0.00506349
C        5.55968169       1.40867252       0.01369131
H        0.62137937      -0.91494060      -0.15433016
H        2.88834582      -0.56915358      -0.82909230
H        2.63659341      -0.54875232       0.94487370
H        2.47652807       1.92284122      -0.84184646
H        2.86866422       1.84812450       1.94994623
H        6.63080408       1.42053472       0.01960676
