15
Properties=species:S:1:pos:R:3 -1514.402669379331=T 10.409926=T 11.34777=T -9.2299=T -7.218=T -10.655=T 0.7=T -0.2927=T 0.427=T 9.59195=T 0.20907=T 4.2781493286=T 11.7370850956=T 0.247743802=T pbc="F F F"
N        0.93301398       0.01583562      -0.40206206
C        2.30400515       0.01509624       0.04807151
C        3.27888203      -0.83091834      -0.71489179
C        3.32282469       0.67920555      -0.87673714
C        4.39097264       1.57198418      -0.32501257
N        5.14240142       1.07667584       0.72526174
O        4.54682354       2.71892560      -0.74306837
H        0.45918029       0.87213672      -0.10483139
H        0.42315720      -0.76954357       0.00992899
H        2.51858719       0.14306147       1.11740039
H        2.88690653      -1.38459627      -1.56816673
H        4.07605149      -1.33761503      -0.16887105
H        2.90055118       1.07139905      -1.80129649
H        5.24341565       0.07598960       0.85794638
H        5.93263702       1.65370333       0.99983856
