19
Properties=species:S:1:pos:R:3 -1828.2950009604567=T 12.236922=T 13.21128=T -8.6387=T -6.6725=T -9.515=T 0.7293=T -0.2123=T 1.028=T 8.70833=T -0.50148=T 5.0308063416=T 8.7040775706=T 0.313999623=T pbc="F F F"
C        1.37727746      -1.25701262      -0.40864324
C        2.67932187      -0.74436654       0.20955597
C        3.02482374       0.68247570      -0.22434611
C        4.32855179       1.22162671       0.38583425
N        5.53456660       0.52998159      -0.04576233
C        6.18553413       0.77866397      -1.23354264
N        5.93182922       1.64373167      -2.15314968
H        1.15343019      -2.28252750      -0.08197357
H        1.43591058      -1.26197023      -1.50764696
H        0.52382898      -0.62216032      -0.12514007
H        3.50583385      -1.41933725      -0.06960204
H        2.60489856      -0.78113517       1.31115723
H        2.20607109       1.36432171       0.06433521
H        3.09559433       0.72603681      -1.32402796
H        4.28226127       1.15518955       1.48432030
H        4.44156315       2.29190950       0.14518959
H        5.87715137      -0.23952237       0.51814948
H        7.05977350       0.12451497      -1.36910409
H        5.09168833       2.19720982      -1.93288336
