14
Properties=species:S:1:pos:R:3 -1422.842346371499=T 9.876644=T 10.90127=T -9.6553=T -7.6341=T -10.798=T 1.1367=T -0.5622=T 0.192=T 10.02692=T 0.41445=T 4.1172774936=T 12.1739745638=T 0.202022789=T pbc="F F F"
O        1.42328278      -0.37090700      -0.95558152
C        2.46166079       0.59477259      -1.14850426
C        2.28433457       1.66178370      -0.09714074
C        2.94142759       1.54648006       1.25365127
N        3.46694422       2.44860698       0.24324549
C        3.46238195       3.83437348       0.38002440
O        3.75779358       4.43853907       1.39681615
H        1.46105340      -1.00595192      -1.69011215
H        2.39945243       1.05627304      -2.15178789
H        3.46778526       0.14917750      -1.04039919
H        1.32589154       2.19190538      -0.12486833
H        3.55048541       0.66499352       1.46606587
H        2.44873576       2.00682834       2.11310973
H        3.22321070       4.33961524      -0.58370886
