19
Properties=species:S:1:pos:R:3 -1939.3594806692156=T 12.065417=T 13.41736=T -9.6438=T -7.4471=T -10.837=T 0.9753=T 0.1009=T 3.018=T 10.47566=T -2.65703=T 8.7457740624=T 10.7264132166=T 0.295716005=T pbc="F F F"
C        1.89187843       0.13168620      -0.72171549
C        1.84558812      -0.13036072       0.76911945
C        0.56250876       0.00682423      -0.01730106
C       -0.35205744       1.22795735       0.20173411
C       -1.76545500       0.73111375      -0.16019613
C       -1.73086870      -0.75938552       0.21506835
C       -0.34351077      -1.20838219      -0.27387159
H        2.20531925       1.12247904      -1.05673221
H        2.20243800      -0.68732469      -1.37403495
H        2.12957168      -1.12351236       1.12296910
H        2.12218941       0.68705865       1.43849070
H       -0.32345046       1.53312585       1.26102723
H       -0.04352457       2.09749845      -0.39766518
H       -2.56061631       1.29153634       0.35214676
H       -1.93638911       0.83262204      -1.24495210
H       -2.55301395      -1.33923268      -0.22865355
H       -1.79983476      -0.86900503       1.31041577
H       -0.38586330      -1.42213471      -1.35577017
H        0.01780069      -2.11866402       0.22719095
