21
Properties=species:S:1:pos:R:3 -2015.386102945999=T 12.18676=T 13.68696=T -10.0706=T -7.7276=T -11.904=T 0.8553=T -0.1128=T 2.818=T 11.54083=T -2.52643=T 9.8214765984=T 10.7541364862=T 0.12694176=T pbc="F F F"
C        2.97430952      -1.02331057      -0.87386300
C        2.47111160      -0.08325073       0.22361787
C        3.01015614       1.35946713       0.14594449
C        2.35181731       2.23846324       1.21910584
C        4.55211700       1.46013355       0.18100232
C        5.23336314       0.91590828       1.43684791
O        6.65332027       1.12681818       1.42471577
H        2.48213254      -2.00413329      -0.80698431
H        4.05826935      -1.19792988      -0.80584257
H        2.76569193      -0.61461458      -1.87493588
H        2.70165346      -0.51174751       1.21432520
H        1.37019367      -0.03221921       0.17308137
H        2.70454167       1.76131366      -0.83831718
H        2.55796139       1.86706784       2.23462870
H        1.25891936       2.25298121       1.09373283
H        2.71030494       3.27703623       1.16274634
H        4.84249071       2.51801919       0.07023237
H        4.96842409       0.93457079      -0.69691269
H        5.00492862      -0.15740688       1.57459088
H        4.87945931       1.44312795       2.33476352
H        7.00970398       0.68150539       0.63582022
