15
Properties=species:S:1:pos:R:3 -1530.7132589073203=T 11.079338=T 12.671=T -9.7143=T -7.4695=T -9.557=T 0.7699=T -0.2858=T 2.008=T 9.15253=T -1.59714=T 4.1568290276=T 9.9345146346=T 0.301619561=T pbc="F F F"
C        0.97262209       0.02687114      -0.00789572
C        2.42691182       0.01165407      -0.00447281
C        3.64331634      -0.02311126       0.01304603
C        5.10051721      -0.01286862      -0.00536089
O        5.64791136      -0.66282096      -1.18239962
C        5.66724787       1.41637668       0.08309967
O        7.08542965       1.39753230       0.02214898
H        0.58320112       1.05551649      -0.01004284
H        0.57111232      -0.48641614       0.87827605
H        0.57712412      -0.48448120      -0.89798873
H        5.49986873      -0.59559614       0.84175619
H        5.04979518      -0.45225110      -1.92307171
H        5.38309000       1.87293293       1.04231721
H        5.22827495       2.02402981      -0.73305423
H        7.30525725       0.79459199      -0.71587756
