18
Properties=species:S:1:pos:R:3 -1739.6068687560223=T 11.374478=T 12.6413=T -9.2524=T -7.1974=T -10.596=T 0.9029=T 0.0194=T 3.153=T 9.87768=T -2.85086=T 8.5245086468=T 11.7077376094=T 0.134370626=T pbc="F F F"
C        0.91016517      -0.00932396      -0.06073384
C        2.40747547      -0.18437856      -0.09399008
C        3.14744927      -0.57524063      -1.33267237
N        3.19497469       0.80879025      -0.83170316
C        4.46162284       1.23442000      -0.22610929
C        5.29238006       1.95007390      -1.28698180
O        4.56894917       3.03542516      -1.86200529
H        0.61703813       0.72445010       0.70480066
H        0.41119556      -0.96164012       0.17262708
H        0.54229248       0.34724764      -1.03227579
H        2.85968891      -0.53832125       0.84200355
H        2.60141054      -0.72038745      -2.26833312
H        4.04796777      -1.18780679      -1.21696929
H        5.03554423       0.38672602       0.20436592
H        4.22194019       1.93861242       0.58707931
H        5.60042326       1.22336098      -2.06551178
H        6.20599229       2.36691179      -0.83697194
H        3.65753999       2.69433050      -1.97068877
