19
Properties=species:S:1:pos:R:3 -1873.258944099427=T 11.762639=T 13.20075=T -9.7245=T -7.5207=T -10.962=T 0.8536=T -0.0592=T 2.833=T 10.59236=T -2.52191=T 8.7124466256=T 10.968793448=T 0.181705652=T pbc="F F F"
C        0.87801138       0.03841186      -0.23547637
C        2.37491657       0.03045440       0.02076858
C        2.73631956      -0.04935284       1.49412161
C        3.24985600      -0.69265467      -0.98180236
C        3.23117427       0.82965472      -0.94823628
C        4.46927465       1.59706932      -0.55489299
O        5.37633780       1.76359524      -1.65725976
H        0.65348106       0.08296578      -1.31074531
H        0.40020263       0.90703796       0.24496774
H        0.40617500      -0.87072487       0.17056058
H        3.81932322      -0.10875630       1.66160227
H        2.28321809      -0.94614385       1.94556715
H        2.35610360       0.82644055       2.04372463
H        2.77322234      -1.20267936      -1.82072418
H        4.14268752      -1.19114345      -0.59495555
H        2.67562318       1.30805428      -1.76094045
H        4.98081646       1.10864890       0.29439362
H        4.21108200       2.62029827      -0.24080849
H        5.50360467       0.88118408      -2.05040444
