14
Properties=species:S:1:pos:R:3 -1395.710253445706=T 9.661501=T 9.9727=T -8.2423=T -6.2175=T -9.062=T 0.8704=T -0.1152=T 0.96=T 8.37215=T -0.36273=T 5.0967420964=T 12.7010142526=T 0.239871893=T pbc="F F F"
C        1.11723311      -0.01128699      -0.23144078
N        2.56799423      -0.02619117      -0.26989577
C        3.28586700      -1.20222626       0.25222005
C        4.69729663      -0.61103759       0.48691302
N        4.51274608       0.85574232       0.57609399
C        3.32053134       1.06970642       0.13881927
H        0.70998751      -0.76117110      -0.92458774
H        0.75215661       0.97443027      -0.54963077
H        0.72223834      -0.22419080       0.78169833
H        3.26660305      -2.03626024      -0.46360102
H        2.81521014      -1.53942240       1.19814379
H        5.36553223      -0.82658807      -0.36470535
H        5.18192483      -0.99917199       1.39309406
H        2.89065890       2.07000760       0.03269892
