12
Properties=species:S:1:pos:R:3 -1307.0294924814755=T 9.603274=T 10.14656=T -9.4105=T -7.3758=T -9.86=T 1.1302=T -0.5077=T 0.457=T 9.25555=T 0.13082=T 5.1629258232=T 11.6878378564=T 0.201188919=T pbc="F F F"
N        0.95974410       0.02795508       0.02368595
C        2.12661466       0.00576567       0.01453622
C        3.59535810      -0.00585050       0.00304379
C        4.19937286      -1.21428358      -0.80727756
N        4.63878006      -0.66156308      -2.09557560
C        4.56132637       0.61411329      -1.98539569
N        4.15374188       1.13464341      -0.75229189
H        3.94438861       0.00149167       1.04607580
H        3.47058642      -2.02214817      -0.95170529
H        5.06777963      -1.62693600      -0.27052321
H        4.84941130       1.30778395      -2.77844527
H        3.62528602       2.00601826      -0.74665726
