12
Properties=species:S:1:pos:R:3 -1135.1646805951975=T 8.238326=T 8.57123=T -9.6122=T -7.4125=T -10.617=T 1.4208=T -0.2454=T 0.502=T 10.14647=T 0.07616=T 5.5175381818=T 6.6259730218=T 0.235589275=T pbc="F F F"
C        0.96052098      -0.12607453      -0.07652338
C        2.47595173       0.06778643       0.08789008
C        2.87443084       1.50967150       0.06251166
N        3.45912107       2.03128401       1.07684715
O        3.74240801       3.40533424       0.85162113
H        0.70634183      -1.19494568      -0.09698129
H        0.59836321       0.32298140      -1.01326734
H        0.41295957       0.34044271       0.75436601
H        2.99893832      -0.45519398      -0.73191703
H        2.82605929      -0.37606823       1.03110980
H        2.64887462       2.11695679      -0.82760350
H        4.17607052       3.65696534       1.68666671
