17
Properties=species:S:1:pos:R:3 -1612.6260718422511=T 10.908572=T 11.98757=T -8.3661=T -6.208=T -9.721=T 0.9001=T -0.0574=T 3.336=T 9.31361=T -3.052=T 7.842858416=T 10.9311884942=T 0.2050346=T pbc="F F F"
C        2.76874416      -1.06613537      -0.72560012
N        2.28966655       0.18546353      -0.13372398
C        3.33759218       1.15553316       0.05135339
C        3.49505115       2.23426510      -1.03961543
N        2.64676030       2.29528072      -2.21070018
C        2.91794626       2.57986773       0.30425337
O        3.67168776       3.29979598       1.25728904
H        1.93490657      -1.77714104      -0.80721567
H        3.58720195      -1.54885167      -0.15359412
H        3.14382643      -0.86791610      -1.74061306
H        1.83302950      -0.00531093       0.76141989
H        4.26508174       0.84242310       0.55535802
H        4.51774301       2.57734843      -1.21064916
H        1.79683685       1.75588717      -2.00967088
H        3.10581503       1.80407028      -2.98365930
H        1.83361021       2.75424813       0.32944337
H        3.71757034       4.22380179       0.95268480
