13
Properties=species:S:1:pos:R:3 -1469.0794288590178=T 13.360338=T 14.14428=T -9.0699=T -7.0471=T -8.619=T 0.493=T -1.1225=T 0.392=T 8.20875=T 0.18293=T 4.0864173782=T 5.8880083498=T 0.304819321=T pbc="F F F"
C        2.69065344      -0.80428850       2.76275756
C        3.11184176      -0.47297912       1.67411786
C        3.62143890      -0.05269181       0.37026033
C        4.14259014       1.36205155       0.37623129
C        5.38516143       1.69785846      -0.02390221
C        5.88983475       3.02160973      -0.04820594
C        6.36371482       4.14245135      -0.08685370
H        2.31870848      -1.09923695       3.72264200
H        2.80297710      -0.13618732      -0.36866913
H        4.41205937      -0.74503651       0.03765751
H        3.45593679       2.13718897       0.72566940
H        6.07135236       0.91151785      -0.35940501
H        6.76946064       5.13288230      -0.11390995
