11
Properties=species:S:1:pos:R:3 -1218.7176229121517=T 10.571662=T 10.85271=T -9.9797=T -7.9159=T -10.374=T -0.2387=T -2.0128=T -0.718=T 9.67455=T 1.14601=T 3.8774885696=T 5.7198213408=T 0.224687562=T pbc="F F F"
N        0.90118283       0.07330240      -0.47234543
C        2.11537885       0.15043629      -0.04878897
N        2.83859772      -1.00649741       0.27956152
C        2.35943423      -2.30928659       0.19194035
O        3.04074387      -3.27522161       0.49326948
C        2.85384463       1.37079325       0.13442440
C        3.43702845       2.42733046       0.27378175
H        0.53723331       1.01256792      -0.66039207
H        3.79657247      -0.89964438       0.61123757
H        1.31662162      -2.35527582      -0.17382802
H        3.95035204       3.36008551       0.39624941
