10
Properties=species:S:1:pos:R:3 -1104.792019039389=T 10.377864=T 10.38284=T -8.1322=T -6.2161=T -8.298=T 1.3396=T -0.245=T 0.123=T 7.84648=T 0.42068=T 4.2730906998=T 6.313553099=T 0.363416965=T pbc="F F F"
O        0.82665867       0.09908918      -0.00614515
C        2.19184642       0.10154161       0.00034129
C        3.08635169       1.14544720       0.00480055
C        4.44023159       0.68931935       0.01117766
C        4.55558026      -0.67615674       0.01147972
S        2.99388627      -1.45163772       0.00385815
H        0.52263787       1.02460162      -0.00736701
H        2.78960423       2.19397140       0.00357915
H        5.29954410       1.35848945       0.01538699
H        5.45108889      -1.28934535       0.01560865
