16
Properties=species:S:1:pos:R:3 -1678.8417133972425=T 11.47258=T 13.05057=T -10.3426=T -8.2414=T -10.934=T 0.8031=T -0.1865=T 1.426=T 10.51526=T -1.0348=T 5.2766457824=T 10.6863657386=T 0.453304561=T pbc="F F F"
C        3.07177942      -1.19833670      -0.48964529
C        2.46515931       0.04836456       0.16140366
C        3.41618516       1.22595775       0.15547674
C        3.51571085       2.13405606      -1.03569268
C        2.85689120       2.64352219       0.24304744
C        3.52888021       3.62588887       1.04382669
N        4.08603055       4.41957941       1.69649462
H        2.36248802      -2.03735510      -0.47120408
H        3.98233814      -1.51899697       0.03782091
H        3.34329354      -1.00720922      -1.53822547
H        2.17441287      -0.17617919       1.20087598
H        1.53793766       0.33031544      -0.36590668
H        4.34721621       1.07610655       0.70872238
H        2.84477151       1.95564871      -1.87736606
H        4.48510059       2.55779098      -1.29511811
H        1.76917476       2.74083667       0.23116995
