15
Properties=species:S:1:pos:R:3 -1548.2469946105555=T 10.796936=T 11.41538=T -7.9372=T -6.0598=T -8.739=T 0.8412=T -0.106=T 1.008=T 7.9924=T -0.38073=T 5.0393241798=T 12.5906171182=T 0.167219959=T pbc="F F F"
C        1.05351931       0.00008233      -0.02064999
N        2.48889123       0.07780297       0.15372492
C        3.20419513       1.22102544       0.44998006
N        4.46550569       1.22300219       0.14327495
C        4.74309929      -0.06889390      -0.43065233
C        4.54631622      -1.30089930       0.43242383
C        3.40747049      -0.85963767      -0.44797441
H        0.63243973      -0.87175312       0.50288776
H        0.77653355      -0.06444670      -1.08831501
H        0.59488586       0.90644715       0.39475727
H        2.69749452       2.05607282       0.93928754
H        5.48501668      -0.10290579      -1.23058782
H        5.08681081      -2.19400386       0.11872269
H        4.44683104      -1.16252880       1.51087488
H        3.02573046      -1.46797377      -1.27054435
