18
Properties=species:S:1:pos:R:3 -1793.9276287214982=T 12.687062=T 13.79937=T -8.8951=T -6.8695=T -9.336=T 1.2353=T -0.0237=T 1.224=T 8.84188=T -0.64321=T 6.466303851=T 0.52160361=T pbc="F F F"
C        1.54944328      -0.40114426       1.13428620
C        2.10474948       0.25264823      -0.13520849
C        3.28683920       1.15671307       0.13734252
N        3.73154626       2.15659020      -0.84641225
C        3.07668870       2.61501362       0.41776176
C        3.92286759       3.36841189       1.36285224
C        3.46813931       4.30796376       2.20306649
H        0.70416806      -1.06420001       0.90241195
H        1.20106381       0.35686640       1.85089116
H        2.31890470      -1.00568874       1.63770807
H        1.31265015       0.83883097      -0.63376510
H        2.41112283      -0.52848881      -0.85240721
H        4.12430391       0.67168189       0.65383480
H        3.04395624       2.20916781      -1.60751427
H        2.03726741       2.95689208       0.34787855
H        4.98764351       3.11214091       1.34693144
H        2.41181868       4.58882922       2.22955439
H        4.13420689       4.82422179       2.89446775
