19
Properties=species:S:1:pos:R:3 -1811.191913643574=T 12.099974=T 13.21544=T -8.6357=T -6.5243=T -10.037=T 0.8499=T -0.0936=T 3.093=T 9.32015=T -2.83483=T 8.0048957194=T 8.2778137026=T 0.088348075=T pbc="F F F"
C        2.20181504      -0.52280122      -1.42310208
N        2.33398024       0.03984482      -0.07847931
C        3.12325976       1.25982185      -0.04740901
C        2.45682434       2.57766222      -0.52376341
C        3.19337151       3.30957211       0.63141295
C        3.34913440       1.94023912       1.33828680
N        4.53213770       1.73078663       2.15594160
H        1.65354777      -1.47406599      -1.37370581
H        3.17064486      -0.70129350      -1.93716200
H        1.61509738       0.16528569      -2.05049827
H        2.77772799      -0.65390055       0.53057217
H        4.11103656       1.15216869      -0.55606517
H        1.37169800       2.53566818      -0.34953485
H        2.65139326       2.91321111      -1.55034720
H        4.17276513       3.69413191       0.30724388
H        2.66418637       4.10482426       1.17169421
H        2.45896571       1.74540520       1.95944072
H        5.37566638       1.74345582       1.57665721
H        4.50367759       0.82465367       2.62841757
