14
Properties=species:S:1:pos:R:3 -1450.3448407221558=T 10.552993=T 11.15213=T -9.4423=T -7.4846=T -10.078=T 0.5425=T -1.1593=T -0.339=T 9.49239=T 0.88818=T 4.1286346112=T 5.5219892792=T 0.392429908=T pbc="F F F"
N        1.67296208      -0.62946339      -0.07761908
C        3.01802095      -0.37888738       0.09924563
O        3.81172777      -1.26917751       0.40608610
C        3.41331700       1.03837690      -0.14712047
C        4.67965615       1.43451178       0.04397938
C        5.20156522       2.81864207      -0.17643239
O        4.27319685       3.74502108      -0.73356983
H        1.00288126       0.13005022      -0.12908384
H        1.33524967      -1.54483359       0.20407857
H        2.65375878       1.75699654      -0.46839666
H        5.40251189       0.68386049       0.38409321
H        6.12539573       2.75854756      -0.78558383
H        5.50992017       3.24771287       0.79267672
H        4.07125647       3.45020236      -1.63961352
