15
Properties=species:S:1:pos:R:3 -1500.898233420154=T 11.736451=T 12.00541=T -8.175=T -6.216=T -8.763=T 0.806=T -0.1141=T 0.644=T 8.1208=T -0.10231=T 5.2097801326=T 5.2814812364=T 0.380342818=T pbc="F F F"
C        1.09023090       0.08961594      -0.55878832
O        2.50548954       0.15936732      -0.36669326
C        3.00353835       1.39601714      -0.00295201
N        2.38888413       2.50186039       0.19072201
N        4.37324179       1.26845713       0.13577059
C        5.21767430       2.31316610       0.49224690
C        6.54931470       2.20783255       0.63224427
H        0.88203345      -0.94783664      -0.84144503
H        0.76331008       0.76124851      -1.36813002
H        0.54868327       0.33121511       0.36932303
H        1.38130018       2.42280921       0.04600095
H        4.75921611       0.34520060      -0.04037835
H        4.67906215       3.24812148       0.65040212
H        7.08332964       1.26922864       0.47292537
H        7.13242140       3.08092653       0.91439175
