17
Properties=species:S:1:pos:R:3 -1676.073666288487=T 10.458705=T 11.80064=T -9.5522=T -7.3754=T -11.52=T 0.925=T -0.1467=T 2.622=T 10.87635=T -2.34673=T 9.1709220564=T 10.1205928234=T 0.093890307=T pbc="F F F"
C        0.99035873       0.13893071       0.12820828
C        2.47593736      -0.09351163      -0.03232745
O        3.28462459       0.96960985       0.57204805
C        4.07237711      -0.00719443       1.30738269
C        3.16725456      -1.16806033       0.84474091
C        3.82030352      -2.33459737       0.12147167
O        4.53412070      -3.21533690       0.99793634
H        0.42432146      -0.69765989      -0.30900907
H        0.68869648       1.06054601      -0.38986412
H        0.72087108       0.23251506       1.18970848
H        2.73401087      -0.19526651      -1.10511444
H        5.11097122      -0.05716921       0.92633976
H        4.09289249       0.21551963       2.38569314
H        2.51279889      -1.54581811       1.64425331
H        4.48067142      -1.95458943      -0.68230135
H        3.05020496      -2.96102487      -0.35531117
H        5.29648454      -2.72694257       1.35531500
