12
Properties=species:S:1:pos:R:3 -1249.2340106896495=T 11.791378=T 12.303=T -8.1304=T -6.3362=T -8.573=T 0.6138=T -0.3658=T 0.504=T 8.03997=T 0.1295=T 3.9654070422=T 10.9146859576=T 0.665042514=T pbc="F F F"
N        0.93130425      -0.18271507      -0.05426276
N        2.33572478      -0.09156498      -0.01774826
C        3.10489803       1.04236280       0.15205026
C        4.43563186       0.65964502       0.12771118
C        4.44825301      -0.74801671      -0.06270726
Cl       5.86772192      -1.74858954      -0.16975115
C        3.14372644      -1.20049197      -0.15086531
H        0.58526815       0.40616464      -0.81738069
H        0.55784762       0.18298429       0.82653999
H        2.64331722       2.01664509       0.27551265
H        5.29949449       1.30723134       0.23367163
H        2.72264222      -2.18760491      -0.29372029
