13
Properties=species:S:1:pos:R:3 -1368.2523998781712=T 13.200292=T 12.65046=T -8.2023=T -6.3035=T -8.548=T -0.1338=T -1.6526=T -0.372=T 8.07781=T 0.93478=T 4.0743907362=T 6.0893740124=T 0.312094501=T pbc="F F F"
N        0.87826270       0.18067565       0.08125537
N        2.22965879       0.03994093       0.13136523
C        2.95794277       1.10103262       0.03542999
C        4.43023857       1.02283650      -0.01519595
C        5.12008139      -0.14079530      -0.11845004
C        5.10988655       2.27887914       0.04884892
C        5.64606890       3.36947767       0.10797713
H        0.40674045      -0.58821261       0.55104895
H        0.50180559       1.10340229       0.33237112
H        2.51290260       2.10977481      -0.00969617
H        4.58561904      -1.08798423      -0.17905443
H        6.20792880      -0.14306891      -0.13925112
H        6.13811384       4.31925144       0.15412098
