19
Properties=species:S:1:pos:R:3 -1927.5615878618926=T 13.67297=T 14.09786=T -8.5533=T -6.6515=T -8.538=T 0.6582=T -0.9164=T 0.318=T 7.9485=T 0.20867=T 5.2304857946=T 0.710437938=T pbc="F F F"
C        1.09563022      -0.47129268       0.22972464
C        2.49731850      -0.01031791      -0.22002833
C        3.03663890      -0.93393103      -1.31818933
C        2.47711914       1.46390454      -0.60321014
C        2.46445220       1.88501900      -1.88690481
C        2.45397514       2.47524018       0.46112384
C        2.53482502       2.26683328       1.78838555
H        0.68994229       0.16833059       1.02459644
H        1.13015045      -1.50564149       0.60317481
H        0.39552775      -0.43850381      -0.61890263
H        3.17561364      -0.10554733       0.64657437
H        2.36473181      -0.96491011      -2.18945167
H        3.12057566      -1.96201261      -0.93689220
H        4.03041074      -0.61455426      -1.66294068
H        2.50080348       1.19689112      -2.73067777
H        2.42151943       2.95015396      -2.12275541
H        2.37420739       3.50881561       0.10632425
H        2.62083841       1.27014977       2.22411159
H        2.52199987       3.10521318       2.48514750
