15
Properties=species:S:1:pos:R:3 -1634.4933840061337=T 14.596411=T 13.92347=T -8.2922=T -6.4307=T -8.006=T -0.1202=T -1.6169=T -0.18=T 7.49114=T 0.72711=T 3.9650474828=T 4.124270304=T 0.469513228=T pbc="F F F"
C        0.83906970       0.21479482      -0.17027819
C        2.33300053       0.04366391      -0.20145318
C        2.89579565      -1.27772608      -0.44468001
C        2.18349705      -2.40298946      -0.65200191
C        3.14740290       1.12436808      -0.00220907
C        4.55992476       1.10657525      -0.00576660
C        5.77866718       1.14868260       0.00185974
H        0.56207662       1.25882607       0.02176883
H        0.38598091      -0.41113767       0.61421576
H        0.38636632      -0.09088093      -1.12637384
H        3.98835310      -1.33139106      -0.45433002
H        1.09208734      -2.41238732      -0.65393545
H        2.68327910      -3.35585229      -0.82729157
H        2.68613044       2.10061111       0.17759463
H        6.84885839       1.17775296       0.00708088
