11
Properties=species:S:1:pos:R:3 -1196.502672046448=T 12.388292=T 11.46252=T -9.003=T -7.214=T -9.385=T -0.3081=T -1.9957=T -0.797=T 8.94455=T 1.34731=T 3.9214044108=T 4.3661421928=T 0.394696485=T pbc="F F F"
O        0.73909858       2.32120486       0.26454055
C        1.82771552       1.78099745       0.16490119
N        3.02162690       2.48281413       0.21121209
N        4.20095649       1.83703516       0.09596923
C        5.27639062       2.56316747       0.14911416
C        6.55862940       1.97985512       0.03795877
C        7.69901875       1.56427062      -0.04872714
H        2.00255299       0.69355900       0.02856592
H        2.96849320       3.50342147       0.33557816
H        5.23219458       3.65730451       0.28217896
H        8.69323297       1.17365022      -0.12755187
