20
Properties=species:S:1:pos:R:3 -1938.4297139312407=T 12.449321=T 14.21346=T -9.0727=T -7.0131=T -10.665=T 0.9233=T 0.0344=T 2.985=T 10.06733=T -2.72933=T 8.53829589=T 11.1293677166=T 0.13376872=T pbc="F F F"
C        1.41432082      -0.21634796       1.18449975
C        1.91133211       0.47211045      -0.09137278
C        3.14383826       1.31751134       0.14191334
N        3.56822718       2.33596380      -0.84867847
C        3.03295904       2.76467859       0.47078047
C        3.99962173       3.48562468       1.38194209
C        4.15823830       4.96390640       1.01524031
H        0.52413625      -0.82985654       0.98620224
H        1.15228195       0.52202248       1.95654301
H        2.18720316      -0.87769869       1.60353147
H        1.11258641       1.11114587      -0.50703130
H        2.13339498      -0.28842103      -0.85975950
H        3.99424557       0.77385512       0.57248886
H        2.83472292       2.42799598      -1.56108292
H        2.01044107       3.16584093       0.47548544
H        4.97593449       2.97860004       1.32433320
H        3.64887371       3.38965065       2.42388430
H        4.51879926       5.06763483      -0.01843681
H        4.87551807       5.46772713       1.67853230
H        3.19882471       5.49862596       1.09464501
