15
Properties=species:S:1:pos:R:3 -1546.9943644081604=T 9.688906=T 10.82902=T -9.7073=T -7.4842=T -11.23=T 0.8546=T -0.0505=T 2.546=T 10.84992=T -2.22898=T 8.6649847848=T 10.358038412=T 0.199523162=T pbc="F F F"
C        1.45243013       0.23348002      -0.26932601
C        2.84932479      -0.17930605       0.09797399
C        3.16265744      -1.60538182       0.51635172
O        4.59042664      -1.74041842       0.47486997
C        5.12247398      -0.75868575      -0.42867037
C        4.09714459       0.34718270      -0.48184821
O        3.66103132       0.78256744       0.82541459
H        1.43764396       1.27726241      -0.60671390
H        0.78208598       0.14587402       0.59853581
H        1.05364323      -0.40413960      -1.07158423
H        2.67050801      -2.30784883      -0.18625659
H        2.83785226      -1.83989024       1.54175625
H        6.09849246      -0.44122411      -0.03246774
H        5.26551450      -1.17492088      -1.44655324
H        4.12229070       1.10686910      -1.26916202
