18
Properties=species:S:1:pos:R:3 -1721.4168267480766=T 10.486709=T 11.82126=T -9.9818=T -7.7778=T -11.911=T 0.9113=T -0.0638=T 2.879=T 11.41571=T -2.60547=T 9.671279958=T 11.166675104=T 0.131434009=T pbc="F F F"
C        1.04357001      -0.19276829      -0.06908721
C        2.56431206      -0.07301868       0.02911770
C        3.07045843       1.37407587       0.06253445
O        2.51081014       2.10603072       1.17136335
C        4.60176636       1.45316827       0.05040342
C        5.14542161       2.87954662      -0.03130868
H        0.72595995      -1.24488664      -0.05009378
H        0.67323554       0.25230212      -1.00528609
H        0.55306413       0.33050283       0.76310126
H        3.03807943      -0.58669433      -0.82433056
H        2.92810388      -0.59109123       0.93594004
H        2.67986611       1.90765073      -0.82304986
H        2.82573261       1.67571223       1.98798736
H        4.97335841       0.85956812      -0.80179624
H        4.98413362       0.95259860       0.95942155
H        4.83648249       3.36538105      -0.96948946
H        6.24394493       2.88874839       0.00443512
H        4.76833029       3.49242364       0.79882764
