19
Properties=species:S:1:pos:R:3 -1922.514749038753=T 12.834726=T 14.06811=T -9.4814=T -7.267=T -9.484=T 1.1521=T 0.1057=T 1.365=T 8.94246=T -0.78575=T 6.657614249=T 0.456431881=T pbc="F F F"
C        2.34316851       3.03243315      -0.46805040
C        2.78212127       1.77143403      -0.55809778
C        3.35615413       0.96930578       0.57300420
C        4.80756676       0.54862475       0.33393716
C        5.93126418       1.62341285       0.37792686
C        6.83861426       0.58342912       1.08896555
C        5.56083334      -0.21634193       1.45885347
H        1.94612263       3.56316720      -1.33472186
H        2.36290384       3.57461076       0.48126375
H        2.74545135       1.26678443      -1.53176959
H        2.75013953       0.05573386       0.71894231
H        3.29217865       1.54756117       1.51107285
H        4.87906323      -0.01954836      -0.60994006
H        5.65587038       2.44819043       1.05411408
H        6.27568077       2.05153524      -0.57327190
H        7.46286376       0.03390013       0.36921374
H        7.47791162       0.93602970       1.90978357
H        5.59725076      -1.31348645       1.40211856
H        5.18002104       0.07343414       2.45106549
