14
Properties=species:S:1:pos:R:3 -1390.1173107356724=T 10.732355=T 11.34843=T -9.0399=T -6.9468=T -9.952=T 1.4095=T -0.3289=T 0.307=T 10.16109=T 0.2414=T 5.6076636052=T 6.8056907288=T 0.439203704=T pbc="F F F"
O        2.32550946      -0.33313265       0.34032934
N        3.34211258       0.66558902       0.23982600
C        4.49835482       0.10828343       0.26537900
O        5.64515554       0.81289902       0.18503297
C        5.48720977       2.25506196       0.05663180
C        6.84642388       2.85705367      -0.08034802
C        7.29181867       3.86123907       0.68076146
H        1.52060648       0.21286904       0.31678597
H        4.66882466      -0.96967067       0.35487827
H        4.94841878       2.64201233       0.93557987
H        4.86395450       2.45064597      -0.83303527
H        7.47294250       2.44971317      -0.87994459
H        6.68327679       4.27819323       1.48702996
H        8.27423155       4.30650341       0.51946324
