18
Properties=species:S:1:pos:R:3 -1770.9027166080484=T 11.528477=T 12.50961=T -9.066=T -7.0001=T -9.125=T 1.0056=T 0.0012=T 1.475=T 8.48841=T -0.82793=T 6.3953342646=T 0.396752129=T pbc="F F F"
C        0.94023950      -0.13067620      -0.10011744
C        2.44190067       0.13437120      -0.01851579
C        2.87530051       1.58426131      -0.02643769
C        2.01257655       2.60833979      -0.12377173
C        4.36510849       1.82994101       0.08921475
C        5.17192043       1.39675613      -1.14657917
H        0.73725528      -1.21032009      -0.07617265
H        0.51095938       0.26861004      -1.03067234
H        0.40437984       0.32957785       0.74287851
H        2.94821127      -0.38862598      -0.84929426
H        2.85014719      -0.33374809       0.89659593
H        0.93641463       2.45755244      -0.21412130
H        2.36549406       3.64150168      -0.11460925
H        4.75193073       1.29182740       0.97319260
H        4.53630860       2.90151194       0.27471717
H        5.10315493       0.31408938      -1.32451932
H        6.23600980       1.64256569      -1.01926487
H        4.80939815       1.91124451      -2.04855314
