15
Properties=species:S:1:pos:R:3 -1497.2249307093216=T 10.390747=T 11.21019=T -9.2565=T -7.2573=T -10.206=T 0.8249=T -0.1738=T 0.592=T 9.68777=T 0.11982=T 4.4444269532=T 5.9618172156=T 0.122883951=T pbc="F F F"
C        0.97691739      -0.05530809       0.19686089
C        2.46838046       0.08164286      -0.07036799
C        3.26173634       1.15648561       0.73222244
N        4.02183147       0.04156905       1.32424199
N        5.13027271       0.08305860       2.17871683
C        3.38421377      -0.96623702       0.62296906
O        3.53514968      -2.17398803       0.59784894
H        0.59613310      -0.99128756      -0.23468687
H        0.41360412       0.77817555      -0.24656709
H        0.76850002      -0.07372445       1.27684153
H        2.68183835       0.12771052      -1.14872791
H        2.66832322       1.72439476       1.46522587
H        3.87798018       1.84031337       0.12949496
H        5.90248566      -0.42493774       1.73461875
H        4.89803352      -0.41491745       3.04440861
