16
Properties=species:S:1:pos:R:3 -1604.5199690431446=T 10.874872=T 12.0955=T -9.1156=T -7.0186=T -10.65=T 1.1961=T -0.8536=T -0.102=T 10.16771=T 0.73276=T 3.6760485154=T 11.4814507608=T 0.103552733=T pbc="F F F"
C        1.07128437      -0.41263381      -0.11480997
N        2.52746252      -0.38752703      -0.23440086
C        3.04940695      -0.42199988      -1.60684661
C        3.09850553       0.83711199      -0.80626590
C        4.37518495       1.34270591      -0.18295971
C        5.16280831       2.31046602      -1.03067587
O        4.81068722       2.74768431      -2.11112954
H        0.77751587       0.05160741       0.83802876
H        0.72873544      -1.45767067      -0.10710669
H        0.55292281       0.11893831      -0.93851161
H        2.32888715      -0.45783774      -2.43068452
H        3.95552862      -1.01528421      -1.75476782
H        2.39155837       1.61495814      -1.11726025
H        5.03823986       0.50195060       0.08684937
H        4.17312086       1.85447623       0.77796676
H        6.13885117       2.62891444      -0.57734551
