11
Properties=species:S:1:pos:R:3 -1175.0753782909728=T 8.902425=T 9.55459=T -9.7116=T -7.5114=T -9.986=T 1.3098=T -0.3778=T 0.764=T 11.8751=T -0.90368=T 5.4179650252=T 6.4846041846=T 0.374050029=T pbc="F F F"
C        3.46518048      -1.35034013      -1.79112777
C        2.85452228      -0.74580971      -0.76330525
O        3.37018755       0.18339943       0.10176739
C        4.73267095       0.53789588      -0.14030426
C        5.14817167       1.52640471       0.85270193
N        5.52598886       2.31473026       1.62256641
H        2.89835184      -2.06983880      -2.37787489
H        4.49814978      -1.17042513      -2.08290900
H        1.81644713      -0.94595216      -0.49348262
H        4.85084468       0.96814497      -1.15115073
H        5.38676479      -0.34929932      -0.06333121
