20
Properties=species:S:1:pos:R:3 -1936.7392251910078=T 12.348179=T 13.83332=T -8.4486=T -6.3764=T -10.079=T 0.9194=T 0.0185=T 2.988=T 9.44596=T -2.72215=T 8.1778561894=T 9.8413019598=T 0.116307529=T pbc="F F F"
C        2.28751409      -0.45389015      -1.58922087
C        2.42566606       0.03970752      -0.14571840
C        3.31553380       1.26313769      -0.00653321
N        2.83289189       2.53795711      -0.65728419
C        3.20960371       3.28744368       0.59042796
C        3.41359933       1.96806381       1.37475657
C        4.66049299       1.78644609       2.22578829
H        1.61685510      -1.32237662      -1.65189882
H        3.26392158      -0.75191927      -1.99944634
H        1.88381811       0.33205378      -2.24387594
H        2.84114725      -0.76434164       0.48702290
H        1.42899994       0.27519672       0.27087293
H        4.32277460       1.03106824      -0.40541745
H        1.80969674       2.49799690      -0.72152635
H        4.15133151       3.84072814       0.43149097
H        2.45254865       3.99135720       0.96699958
H        2.51040654       1.73599357       1.96611440
H        5.56893743       2.01828320       1.64775696
H        4.75068641       0.75310490       2.59467246
H        4.64535427       2.44813914       3.10546854
