16
Properties=species:S:1:pos:R:3 -1637.2180844895304=T 10.573281=T 11.40434=T -8.8453=T -6.7265=T -10.266=T 0.898=T -0.7607=T 0.303=T 9.58028=T 0.43479=T 3.7222952934=T 11.0586708994=T 0.127255798=T pbc="F F F"
O        1.13362956       0.10243001       0.51601512
C        2.29627525       0.02812618       0.14959183
C        3.01272993      -1.29828951      -0.04521357
C        4.02283295      -1.28583218      -1.20483203
C        4.88561223      -0.02581660      -1.16207767
N        4.01198230       1.14739201      -1.23587650
C        3.15276332       1.27644438      -0.05432322
H        2.25941619      -2.09181477      -0.14144619
H        3.55398829      -1.48057890       0.90266833
H        4.65630982      -2.18476973      -1.16067447
H        3.48264862      -1.30616937      -2.16418524
H        5.51277001      -0.03918710      -0.24029347
H        5.56796817      -0.00408833      -2.02451350
H        4.56485466       1.99819528      -1.35019837
H        3.72630242       1.40896623       0.89543841
H        2.48035629       2.13728241      -0.16305946
