13
Properties=species:S:1:pos:R:3 -1352.4148613152865=T 12.91376=T 12.96408=T -7.5015=T -5.6971=T -8.366=T 0.9518=T -0.1798=T 0.629=T 7.85941=T -0.01295=T 4.7225523484=T 8.2410890494=T 0.365463258=T pbc="F F F"
C        0.79216517       0.15720775      -0.00951424
C        2.28060075       0.06343796      -0.00095459
C        3.19527659       1.05890563       0.00513420
N        4.51804367       0.63977978       0.01235896
C        4.74829464      -0.72802306       0.01293951
N        5.92375685      -1.24031946       0.01980705
S        3.11204234      -1.51095397       0.00251723
H        0.48334449       1.21155340      -0.00870020
H        0.34802945      -0.32622336       0.87448053
H        0.35843529      -0.32185366      -0.90103313
H        2.98077731       2.12508066       0.00477434
H        5.31600257       1.26809441       0.01808012
H        5.90921087      -2.26241608       0.01918021
