17
Properties=species:S:1:pos:R:3 -1746.258409912027=T 10.816733=T 11.91665=T -9.6451=T -7.4746=T -11.373=T 0.9188=T -0.025=T 2.799=T 10.97846=T -2.50955=T 8.9956058524=T 12.1196562972=T 0.071791197=T pbc="F F F"
O        1.04847908      -0.19637733      -0.11747041
C        2.43522311       0.01902479      -0.00063164
C        3.35975912      -0.56360718      -1.09715058
C        4.44249066      -0.35341709       0.00251705
C        3.33959160      -0.73734541       1.02879322
C        4.47851749       1.18630333       0.12838759
C        2.94412609       1.47101217       0.12509044
H        0.60009219       0.34484086       0.55696779
H        3.45337182      -0.00878356      -2.04276414
H        3.14738440      -1.62472354      -1.28223886
H        5.40107287      -0.88309879      -0.03251290
H        3.12239436      -1.81335232       1.03670115
H        3.41808336      -0.34030950       2.05293266
H        4.96949410       1.51492153       1.05604051
H        4.99565900       1.66001178      -0.71866251
H        2.61663614       2.08638748      -0.72527588
H        2.59587461       1.94813278       1.05500650
