20
Properties=species:S:1:pos:R:3 -1941.7416230242952=T 12.409655=T 13.83377=T -9.21=T -6.913=T -10.605=T 0.9425=T 0.013=T 2.991=T 9.95529=T -2.73253=T 8.6882321598=T 9.8566514266=T 0.116170184=T pbc="F F F"
C        0.94180527       0.01566656      -0.00427305
C        2.46032700       0.03202523       0.06567134
C        3.17306665       1.08704216       0.95724758
C        4.22455496       0.00789038       1.32702433
C        3.20671131      -1.07600021       0.86688322
C        3.71489521      -2.30509484       0.13133153
N        4.43153573      -3.20469278       1.05036041
H        0.57129469      -0.85518728      -0.56674894
H        0.55585277       0.91889052      -0.50184172
H        0.50299732      -0.02463651       1.00497947
H        2.88406893       0.07748191      -0.95371670
H        2.54935608       1.35136121       1.82547222
H        3.52496009       2.01291730       0.48103853
H        5.09293413       0.04729230       0.64922978
H        4.58375844      -0.02551399       2.36473009
H        2.59213957      -1.39830974       1.72492215
H        4.32304569      -1.96791649      -0.73610390
H        2.85616526      -2.86266752      -0.28043770
H        5.27290582      -2.73675632       1.39887251
H        4.75778505      -4.03252189       0.54672886
