16
Properties=species:S:1:pos:R:3 -1576.4844678253626=T 10.146437=T 11.2531=T -8.9754=T -6.7628=T -10.272=T 1.2403=T -0.0724=T 0.099=T 10.35802=T 0.53461=T 4.3904806446=T 11.7085187212=T 0.12600629=T pbc="F F F"
C        2.45361531      -0.68352022      -1.24148055
N        2.54509325      -0.22141499       0.14711928
C        2.97239649       1.15928359       0.26194445
C        4.43428916       1.42567158      -0.11203256
O        5.30986953       0.58051973      -0.14743624
O        4.64131977       2.74751532      -0.35901026
C        6.01520482       3.10842066      -0.64310044
H        2.15239755      -1.73987120      -1.24829705
H        3.39290151      -0.58787653      -1.82001189
H        1.66763452      -0.11233201      -1.75915909
H        3.21519445      -0.81012535       0.64871149
H        2.85280965       1.50016996       1.30524654
H        2.32254185       1.80626830      -0.34681393
H        6.00504734       4.19105869      -0.80229723
H        6.36900318       2.58659752      -1.54148658
H        6.66293163       2.84518494       0.20299407
