14
Properties=species:S:1:pos:R:3 -1443.4236024129038=T 10.081398=T 10.84048=T -9.6084=T -7.3643=T -9.705=T 1.1946=T -0.8697=T -0.079=T 10.09205=T 0.71577=T 3.6680514184=T 6.6694673106=T 0.458509245=T pbc="F F F"
C        1.44723388      -0.67621345       0.41268427
C        2.38308627      -0.12037384      -0.36515879
C        3.11924745       1.15030211      -0.05604053
C        4.63265991       0.93628723       0.04060305
C        5.43694890       2.18377434       0.30488558
O        4.97740179       3.30477479       0.42172294
H        0.94620732      -1.60346505       0.13132847
H        1.14632803      -0.21601370       1.35760873
H        2.65210901      -0.61647982      -1.30600122
H        2.74803247       1.58804267       0.88274896
H        2.92487922       1.89917194      -0.84245697
H        5.04055905       0.48485678      -0.88374692
H        4.88723655       0.21027164       0.83474253
H        6.54193015       2.00843436       0.39155991
