13
Properties=species:S:1:pos:R:3 -1381.6260825457412=T 10.346953=T 10.77198=T -7.7684=T -5.8021=T -8.488=T 0.5623=T -0.3761=T 0.794=T 7.98894=T -0.28139=T 4.9632339716=T 9.0676665156=T 0.264786702=T pbc="F F F"
C        0.92847554       0.00807947      -0.00837000
C        2.41409723       0.05236230      -0.00066753
C        3.28024458       1.08468751       0.00498652
O        4.59241076       0.62700501       0.01099926
C        4.56626960      -0.76269468       0.00944938
N        5.65414951      -1.43224078       0.01482579
N        3.21364480      -1.10229745       0.00148205
H        0.52284472       1.02691472      -0.00685210
H        0.53472427      -0.51480660       0.87737815
H        0.54369458      -0.50870254      -0.90161224
H        3.13906325       2.15790357       0.00547946
H        5.47345251      -2.43924225       0.01262973
H        2.87640866      -2.05648828       0.00093153
