18
Properties=species:S:1:pos:R:3 -1741.3696519641724=T 11.063791=T 12.11372=T -8.8286=T -6.6361=T -10.3=T 0.8899=T -0.1091=T 2.692=T 9.6042=T -2.35988=T 8.2109480528=T 9.6356091858=T 0.091586417=T pbc="F F F"
C        0.95051488      -0.07545440       0.22531785
C        2.43903610      -0.02743940      -0.11671251
C        2.69221260      -0.05699808      -1.62153760
O        2.15721015       1.07035370      -2.32556668
C        3.21084137       1.05792313       0.69246179
N        3.59389303       0.01518097       1.68434749
C        3.27418653      -1.05683244       0.70421467
H        0.80818970      -0.07959732       1.31502505
H        0.47762228      -0.98213330      -0.18496809
H        0.41714357       0.80414410      -0.16942924
H        2.30339740      -1.00698527      -2.04098652
H        3.77485250      -0.02913938      -1.81767880
H        1.18744576       1.02705503      -2.26298714
H        2.61835445       1.88584976       1.11340289
H        4.05077036       1.47988382       0.11112578
H        4.57046645       0.04457888       1.98281589
H        4.14241023      -1.43353578       0.12966310
H        2.73061265      -1.91611401       1.13045207
