20
Properties=species:S:1:pos:R:3 -1880.3963106906606=T 11.961596=T 13.30677=T -9.2519=T -6.9301=T -10.601=T 0.9298=T -0.0415=T 3.268=T 9.95843=T -3.01152=T 8.7867514354=T 10.7977919568=T 0.096641187=T pbc="F F F"
C        1.90858021       0.94371491      -2.01321869
O        3.16944405       1.28695171      -1.46339764
C        3.21767952       1.04633619      -0.05535018
C        4.59084258       1.42692653       0.47818371
C        4.95366916       2.90924010       0.30468113
C        4.14184934       3.87505851       1.17356483
N        4.33399989       3.59191164       2.60720419
H        1.95304362       1.15496146      -3.08952916
H        1.09045617       1.53873292      -1.56220776
H        1.67810214      -0.12945749      -1.86560791
H        3.01793978      -0.02576015       0.14748286
H        2.41675077       1.62512919       0.44986292
H        5.34310097       0.80502736      -0.03256474
H        4.62055181       1.16874940       1.54805524
H        4.83226267       3.19549423      -0.75160224
H        6.02458829       3.04166362       0.53986277
H        3.06716023       3.76046429       0.95524034
H        4.40800987       4.91174301       0.88393068
H        5.29753054       3.81537498       2.87335882
H        3.73728837       4.20337761       3.16854082
