15
Properties=species:S:1:pos:R:3 -1532.7105475320436=T 10.099309=T 10.79877=T -9.3526=T -7.1504=T -10.563=T 0.8255=T -0.2019=T 0.63=T 9.59109=T 0.05937=T 4.3708412622=T 6.4009508304=T 0.136445628=T pbc="F F F"
N        0.98030261       0.05072516       0.06208746
C        2.43680222       0.10937174       0.00951733
C        3.08144979       1.22422376       0.84939378
C        4.43877034       0.62903040       1.27838450
N        4.15054801      -0.80236088       1.31766616
C        3.03857591      -1.17410389       0.61268555
O        2.59527979      -2.30947520       0.47185576
H        0.70635851      -0.93130384      -0.05780404
H        0.56733690       0.57214333      -0.71239871
H        2.83909409       0.15053337      -1.02627085
H        2.44331753       1.39219751       1.72936725
H        3.19723203       2.17487325       0.31291784
H        5.23404953       0.85645244       0.54623215
H        4.76566362       0.99435413       2.26224961
H        4.78591910      -1.50042128       1.69337621
