17
Properties=species:S:1:pos:R:3 -1664.4151214205308=T 11.780056=T 12.27956=T -8.6858=T -6.5769=T -9.436=T 1.1722=T -0.1899=T 1.296=T 8.93393=T -0.70678=T 6.5568880226=T 0.393766716=T pbc="F F F"
N        0.76838490       0.37165883       0.40518740
C        2.14436089       0.02194400       0.06030793
C        3.22588098       0.90022181       0.77850003
N        4.00678477      -0.31103877       1.17749622
C        2.86438664      -1.18169834       0.75235203
C        2.28702795       0.10342414      -1.43609570
C        2.87229732      -0.78123828      -2.25144182
H        0.62598942       0.28121888       1.41459344
H        0.11244638      -0.26780149      -0.05090321
H        2.81384869       1.41572406       1.66204888
H        3.75829163       1.63261907       0.15450515
H        4.78748056      -0.43804017       0.52895291
H        3.13118597      -2.05262560       0.13508284
H        2.30223802      -1.54247748       1.63019370
H        1.86398291       1.02357648      -1.85576190
H        3.30296630      -1.71862497      -1.89308621
H        2.93602668      -0.59477216      -3.32407169
