15
Properties=species:S:1:pos:R:3 -1547.9762414636564=T 10.984122=T 12.08411=T -9.5597=T -7.3262=T -9.484=T 1.1303=T -0.9037=T -0.065=T 10.07234=T 0.73057=T 3.6730604528=T 6.401707145=T 0.421471948=T pbc="F F F"
O        2.24272419      -1.26413765      -1.08034998
C        3.36071640      -0.76730702      -0.32113348
C        3.00842030       0.58399650       0.21391306
C        3.74230225       1.68507843       0.01524596
C        3.41134758       3.03322064       0.57325372
C        4.54264716       3.73626784       1.29641336
O        5.68451163       3.32856324       1.38648582
H        2.39801912      -2.20859706      -1.25067732
H        4.27171590      -0.70209869      -0.94437471
H        3.57780391      -1.44740621       0.52544145
H        2.08957173       0.63144353       0.81001748
H        4.65700302       1.62170312      -0.58303723
H        2.54388130       2.99845146       1.25494414
H        3.10843066       3.73287761      -0.23302323
H        4.24641483       4.71809424       1.75141097
