16
Properties=species:S:1:pos:R:3 -1481.2040824975563=T 9.534152=T 10.4431=T -8.6568=T -6.4569=T -10.058=T 1.0118=T 0.0619=T 3.334=T 9.35626=T -3.08708=T 8.177434637=T 11.4587365256=T 0.149444682=T pbc="F F F"
C        1.14454151      -0.51305884      -0.09153967
C        2.66274823      -0.33815663      -0.14860544
C        3.09994578       1.11230567       0.04690545
N        4.55632657       1.24408728       0.04103312
C        4.99921738       2.62987350       0.16518464
H        0.85800637      -1.56377474      -0.23896894
H        0.64162835       0.08199593      -0.86909995
H        0.74404696      -0.19275000       0.88250176
H        3.03884518      -0.69968505      -1.12230301
H        3.14923170      -0.95756242       0.62166388
H        2.73579728       1.47532034       1.02510870
H        2.60895766       1.75313404      -0.72244154
H        4.91916954       0.85256207      -0.83218209
H        4.72443628       3.01272300       1.16063421
H        4.56166020       3.31911529      -0.58909731
H        6.09410104       2.67774054       0.08322619
