15
Properties=species:S:1:pos:R:3 -1450.5711939384041=T 11.067331=T 11.63533=T -9.0938=T -7.0987=T -10.275=T 1.7386=T -0.0366=T 0.701=T 9.6225=T -0.19666=T 4.8669712412=T 6.399413404=T 0.247216936=T pbc="F F F"
N        1.02575317       2.78462440       2.11657100
C        2.15012992       2.51292293       1.56261591
N        2.95424506       3.53278966       1.07029882
O        3.70436820       3.12812224      -0.08797487
C        5.04491787       3.56616067       0.05381887
C        5.77686323       3.73639352      -1.23879532
C        5.40876952       4.95304583      -0.40681296
H        0.62524861       1.93851801       2.53497489
H        2.63026965       1.52620110       1.46416418
H        2.42756973       4.38765364       0.85749393
H        5.56152077       3.14205918       0.91920943
H        5.20051233       3.56990807      -2.14884696
H        6.81712482       3.41483731      -1.28330627
H        6.19377638       5.48422791       0.13187830
H        4.60003074       5.57780551      -0.78670894
