13
Properties=species:S:1:pos:R:3 -1352.2336414349368=T 12.99582=T 12.91963=T -7.1948=T -5.3589=T -7.71=T 0.915=T -0.1677=T 0.437=T 7.1347=T 0.12434=T 4.0516393052=T 5.854432941=T 0.378908037=T pbc="F F F"
N        0.88197471       0.10949680      -0.24205159
C        2.27118602       0.02886185      -0.08340736
C        3.18129364       1.05608821       0.01766618
C        4.54048440       0.59936704       0.07492495
N        5.61319587       1.49378130       0.26058418
C        4.64620029      -0.77183112       0.01833935
S        3.07299261      -1.52647321      -0.10746587
H        0.49903397       0.98148021       0.12034277
H        0.37653163      -0.68154731       0.15394375
H        2.89648076       2.10736689       0.06743181
H        5.49321890       2.36513656      -0.25411211
H        6.51682132       1.08370940       0.03133089
H        5.53509588      -1.39369662       0.05069304
