14
Properties=species:S:1:pos:R:3 -1397.459340405303=T 10.964966=T 10.93003=T -9.1333=T -7.1482=T -9.614=T 0.1208=T -1.5261=T -0.53=T 9.05673=T 1.0726=T 5.0451267246=T 5.2949833118=T 0.579463671=T pbc="F F F"
O        1.28064443      -0.26226001       1.04800055
C        1.90653449       0.15976637      -0.17316435
C        2.75503460       1.40212897      -0.01042852
C        2.16496908       2.70071188       0.30255600
C        0.86103941       2.89460253       0.57194669
N        4.02529882       1.17965175      -0.18637238
O        4.81164937       2.34087376      -0.02023068
H        1.99241088      -0.44251624       1.68779257
H        1.07927052       0.35688724      -0.87105014
H        2.53974512      -0.63405792      -0.60196188
H        2.85292168       3.54759217       0.30673355
H        0.14809066       2.07023784       0.61672374
H        0.48055240       3.89524739       0.78014421
H        5.70377854       1.99677428      -0.20239936
