12
Properties=species:S:1:pos:R:3 -1349.2073539236537=T 9.692807=T 10.44258=T -10.0955=T -7.8521=T -9.621=T 1.0672=T -0.7007=T 0.572=T 9.1667=T -0.04839=T 5.3606091016=T 11.6756624312=T 0.256833294=T pbc="F F F"
N        0.95408075       0.06704425      -0.13812048
C        2.11703175       0.02199948      -0.06128055
C        3.59588326      -0.01576199       0.02568624
O        4.04747026      -1.20707495       0.68615144
C        4.63612581      -0.85145397       1.95755110
C        4.71852937       0.64327201       1.94797703
C        4.13497976       1.13218295       0.85234597
H        3.98418737      -0.01744128      -1.01034687
H        5.62256416      -1.34095338       2.02695609
H        4.00827108      -1.22756009       2.78724417
H        5.18024977       1.22341896       2.74565620
H        4.00963665       2.17477803       0.56860968
