13
Properties=species:S:1:pos:R:3 -1485.1690199477152=T 16.199005=T 16.24902=T -8.3827=T -6.4822=T -8.=T -0.0275=T -1.5245=T 0.093=T 7.53191=T 0.56435=T 2.8893325482=T 7.6559371224=T 0.988380008=T pbc="F F F"
C        0.94282383      -0.02803987      -0.00001360
C        2.39115207      -0.00557588       0.00006471
C        3.61613473       0.01421741       0.00009928
C        4.97023369       0.03372428       0.00010641
C        6.19920067       0.07072231       0.00008094
C        7.60870481       0.04719999       0.00002743
C        8.40073431       1.14076428      -0.00006940
H        0.52983429       0.99211044       0.01175682
H        0.55520170      -0.55887952       0.88302819
H        0.55500569      -0.53841272      -0.89495878
H        8.07152865      -0.94649869      -0.00002272
H        7.98092220       2.14696245      -0.00001550
H        9.48553336       1.03933552      -0.00009378
