16
Properties=species:S:1:pos:R:3 -1629.2177263233175=T 10.589438=T 11.89559=T -10.6833=T -8.3992=T -11.755=T 0.8362=T -0.2971=T 1.352=T 11.30642=T -0.94439=T 5.3499959=T 11.563058346=T 0.258007722=T pbc="F F F"
C        2.82425319      -0.92044070      -1.02533146
C        2.45038124      -0.01138544       0.14491430
C        2.98389748       1.43134964       0.00567296
C        2.50474150       2.34404703       1.16285649
O        2.89974329       3.69902952       1.01285521
C        4.44752981       1.46582485      -0.04727052
N        5.61317302       1.53034286      -0.03646736
H        2.41220358      -1.92839482      -0.88056506
H        3.91500504      -1.01484014      -1.12526049
H        2.43061891      -0.53063159      -1.97582780
H        2.82366178      -0.43766404       1.08972272
H        1.35447456       0.05431816       0.23692878
H        2.61749064       1.87013454      -0.93908903
H        2.84852270       1.91913698       2.12388761
H        1.40505918       2.34511152       1.16416855
H        3.87074408       3.74118165       1.09458511
