14
Properties=species:S:1:pos:R:3 -1497.6600071530372=T 10.700816=T 10.8763=T -8.9405=T -6.8536=T -9.992=T 0.055=T -1.6412=T -0.61=T 9.21252=T 1.21874=T 3.4553534354=T 5.2440126672=T 0.350812599=T pbc="F F F"
O        0.87188916      -0.05079076      -0.07383392
C        2.09985986      -0.03619615      -0.05199237
C        2.87938524       1.25457215       0.19603999
N        4.20278858       1.18663048      -0.42403250
C        5.00550286       0.07443424       0.06973205
C        4.25373716      -1.21522719      -0.02980592
C        2.91186848      -1.26217166      -0.15136734
H        2.30644044       2.08562381      -0.23579041
H        2.89929735       1.40126998       1.30186316
H        4.70082606       2.06841588      -0.29822493
H        5.33502905       0.18898125       1.13217122
H        5.92825873       0.00527241      -0.52914022
H        4.84103938      -2.13667270       0.01013571
H        2.36774764      -2.20399174      -0.24530450
