19
Properties=species:S:1:pos:R:3 -1809.267055873819=T 11.974481=T 13.33649=T -8.7603=T -6.6274=T -10.229=T 0.9292=T -0.0096=T 3.113=T 9.52099=T -2.80797=T 8.3626821196=T 10.4031321202=T 0.158750234=T pbc="F F F"
N        1.10243816       2.13821892       0.38366255
C        2.46056691       1.91074798      -0.13735356
C        3.39763102       1.46681430       0.98502987
C        4.80092196       1.13889766       0.49956512
C        5.74208986       2.27336224       0.01067743
C        6.85551839       1.53808134       0.79103234
N        5.79670949       0.83996956       1.57242399
H        0.48487008       2.43810622      -0.37423005
H        1.12005349       2.91100608       1.05525644
H        2.89853680       2.79425418      -0.64711302
H        2.39569048       1.11122815      -0.89497038
H        2.96166087       0.58464211       1.48298838
H        3.47440590       2.25759704       1.75171502
H        4.75269953       0.33820112      -0.26843208
H        5.48332275       3.23822911       0.46976487
H        5.87407643       2.40066359      -1.07029679
H        7.44345052       0.87400986       0.13017762
H        7.54760218       2.14192173       1.39786704
H        5.96597519      -0.15544117       1.73772521
