20
Properties=species:S:1:pos:R:3 -1939.6536733754433=T 12.400063=T 13.6924=T -8.483=T -6.377=T -9.821=T 0.8231=T -0.1129=T 3.019=T 9.36464=T -2.66094=T 7.999762699=T 11.4352411786=T 0.153210129=T pbc="F F F"
C        1.03396883       0.05364368      -0.06691267
C        2.54512054       0.04136746      -0.01947912
C        3.37961916      -0.69347376      -1.07968484
N        2.83832664      -1.37923648      -2.23257671
C        3.41881441       0.81949715      -1.00060427
C        2.77203609       1.65661869      -2.08990514
C        4.69052027       1.44403220      -0.45339461
H        0.61998067       1.01604554       0.27215968
H        0.62219269      -0.73087125       0.58656606
H        0.64512637      -0.13677927      -1.07789971
H        2.95342449      -0.01262665       0.99514214
H        4.27496505      -1.19389712      -0.69617107
H        2.24425694      -0.76819227      -2.79327694
H        2.26732089      -2.17949318      -1.94915204
H        1.80891308       1.26010276      -2.43762492
H        3.43759025       1.74378052      -2.96335381
H        2.57840183       2.67563366      -1.71900694
H        5.14448090       0.81355954       0.32452510
H        4.48583435       2.43136659      -0.00820061
H        5.43796654       1.58228220      -1.25138957
