16
Properties=species:S:1:pos:R:3 -1645.0724205960391=T 10.705164=T 11.63263=T -8.8159=T -6.7818=T -10.556=T 0.9745=T 0.1371=T 2.889=T 9.90965=T -2.58406=T 8.446360271=T 11.8121214228=T 0.15320895=T pbc="F F F"
C        1.74303024       0.07299687      -0.45415071
C        0.80281844       0.89074775       0.35997836
C       -0.64977076       1.08711705      -0.09820460
C       -1.34288721       0.07973753       0.89209615
C       -0.52022216      -0.93811620       0.04429441
C       -0.85176565      -0.02161568      -1.16378951
N        0.86910375      -0.60196022       0.53363980
H        1.58054499      -0.06176302      -1.52417202
H        2.79438699       0.06076679      -0.15779858
H        1.17429511       1.49884010       1.18933404
H       -1.00465248       2.11498981      -0.24284658
H       -1.08118615       0.14889377       1.95725229
H       -2.42883705       0.00189876       0.74730548
H       -0.70995898      -2.01802479       0.04872893
H       -1.90773904      -0.11432868      -1.44602341
H       -0.23357004      -0.03826984      -2.07024406
