17
Properties=species:S:1:pos:R:3 -1680.8449708370506=T 11.370083=T 12.24043=T -9.4994=T -7.3673=T -9.267=T 0.8904=T -0.4981=T 1.047=T 8.69071=T -0.38676=T 6.1476474324=T 0.407805723=T pbc="F F F"
C        1.04800150       0.07858394      -0.15433403
C        2.53871811      -0.09833234      -0.03830240
C        3.00857591      -1.53485900      -0.04641900
O        2.60145502      -2.24813300       1.13820255
C        3.36599368       0.96091084       0.09463108
C        4.86072200       0.96038044       0.20152065
O        5.47612451       1.65758856      -0.90033615
H        0.75080586       1.13018531      -0.05024377
H        0.52749415      -0.51439970       0.61285797
H        0.69038759      -0.28884623      -1.13060153
H        4.09884587      -1.60886280      -0.19047025
H        2.52739455      -2.07672512      -0.87613155
H        2.98032028      -1.77253531       1.89944123
H        2.91998766       1.96273242       0.09279944
H        5.27225587      -0.05923979       0.29687656
H        5.17430935       1.52376831       1.09453960
H        5.11240807       1.27058348      -1.71710039
