18
Properties=species:S:1:pos:R:3 -1749.0521234118846=T 12.158631=T 13.15561=T -9.2517=T -7.0873=T -9.265=T 0.8929=T -0.3016=T 1.24=T 8.74326=T -0.61041=T 6.3147061688=T 0.388176598=T pbc="F F F"
C        0.89603961      -0.11145503       0.04141136
C        2.43321173      -0.03922097      -0.06136697
N        3.00965894      -0.83562684      -1.15345714
C        2.88342072       1.39915178      -0.13588884
C        3.77194657       1.90778579      -1.00146483
C        4.17560199       3.35035577      -1.02234212
O        5.58743366       3.52595455      -0.79972717
H        0.52018718       0.46302142       0.90245405
H        0.56543234      -1.15371250       0.16043107
H        0.42998168       0.29779157      -0.86833401
H        2.84546901      -0.45699326       0.87804578
H        2.59478354      -0.53754273      -2.04275844
H        2.74641341      -1.81640252      -1.03232292
H        2.40693890       2.07146616       0.58890320
H        4.27444674       1.24493631      -1.71309662
H        3.58225075       3.92480574      -0.28567050
H        3.99333133       3.79330396      -2.01449685
H        5.80940190       3.02121080       0.00351094
