14
Properties=species:S:1:pos:R:3 -1481.4322533614509=T 11.395643=T 12.53525=T -9.2222=T -7.3658=T -9.951=T 0.8797=T -0.836=T -0.086=T 9.39889=T 0.68348=T 3.6679894254=T 10.4533092544=T 0.494144508=T pbc="F F F"
C        3.03130764      -1.28637792      -0.00231345
N        2.41600964       0.03355884       0.00045318
C        3.07693976       1.23662223       0.00007604
O        2.48840615       2.32225515      -0.00024024
C        4.52749605       1.14657467       0.00034283
C        5.74487833       1.17725527       0.00034706
C        7.19581574       1.22487655       0.00032989
H        2.23396547      -2.03851244       0.00605058
H        3.66153831      -1.44184364       0.88580086
H        3.64726129      -1.44617608      -0.89980066
H        1.40252449       0.11546006      -0.00197958
H        7.55731720       2.26343346      -0.01177996
H        7.60536845       0.71056532      -0.88167561
H        7.60432149       0.73191854       0.89493908
