16
Properties=species:S:1:pos:R:3 -1609.1653877950055=T 11.459674=T 12.15316=T -8.8932=T -6.821=T -9.923=T 0.5947=T -1.2677=T -0.191=T 9.91299=T 0.83398=T 3.6506933784=T 6.6981328738=T 0.223954809=T pbc="F F F"
C        1.68648027      -0.40337677       1.47175999
N        3.04571438       0.11326116       1.35435511
C        3.13554552       1.43964208       0.78466385
C        2.94125507       2.52742226       1.81575426
C        2.15876168       3.59980252       1.65429148
C        4.47445148       1.62912610       0.07194436
O        5.25696975       0.72457596      -0.14687031
H        1.72250178      -1.43040374       1.85900347
H        1.12195724      -0.41058229       0.51541317
H        1.11675662       0.20336450       2.19140807
H        3.65426881      -0.51448134       0.82189751
H        2.39514987       1.62085733      -0.03776562
H        3.51307410       2.38301407       2.73791962
H        1.56567755       3.74389309       0.74726745
H        2.07896424       4.36694941       2.42550861
H        4.67285165       2.67652566      -0.26226103
