19
Properties=species:S:1:pos:R:3 -1866.2814513111236=T 11.722152=T 13.1467=T -9.3537=T -7.1925=T -11.158=T 0.9403=T 0.0574=T 2.988=T 10.62632=T -2.76255=T 9.0536189018=T 11.1506685114=T 0.159245768=T pbc="F F F"
C        1.92691334      -0.50157259      -1.25957276
O        2.16872703       0.07228141       0.01919071
C        3.03308130       1.19244704      -0.05512235
C        2.47125319       2.54544629      -0.58199310
C        3.19731340       3.25383268       0.60415106
C        4.53385492       3.89113285       0.23440324
C        3.31554198       1.86266550       1.30168894
H        1.26774126      -1.36553163      -1.10730484
H        2.86797547      -0.84291500      -1.73248260
H        1.43090157       0.21255029      -1.94263480
H        3.96441421       0.90853037      -0.58439469
H        1.37807268       2.57154670      -0.46286172
H        2.73798105       2.86238028      -1.60064389
H        2.57834723       3.98409551       1.14592138
H        5.18379193       3.18718568      -0.30835565
H        5.07752864       4.21914879       1.13349404
H        4.38694934       4.77156291      -0.40976333
H        4.26089662       1.61825381       1.80634031
H        2.47744487       1.67600912       1.98792005
