13
Properties=species:S:1:pos:R:3 -1456.1709043676435=T 13.800724=T 13.73973=T -9.2455=T -7.3382=T -9.125=T -0.7699=T -2.3807=T -1.158=T 8.62859=T 1.74266=T 3.3214733526=T 4.0295078042=T 0.44636745=T pbc="F F F"
C        0.94483208      -0.04843625      -0.00195937
C        2.39347257       0.01495013       0.00013233
C        3.61336728       0.07676068       0.00251622
C        5.01954102       0.10139384       0.00343898
C        5.79346492       1.21833842       0.04363347
C        7.24994222       1.10182429       0.03984581
O        8.02566571       2.05004641       0.07453521
H        0.49892420       0.95635875       0.01012104
H        0.57724821      -0.59645873       0.87880514
H        0.57820244      -0.57542572      -0.89577748
H        5.52720621      -0.87185604      -0.03155857
H        5.36098471       2.22027881       0.07978102
H        7.63094843       0.04672540       0.00152619
