17
Properties=species:S:1:pos:R:3 -1611.005494040688=T 11.714741=T 12.07677=T -8.7225=T -6.7246=T -9.334=T 1.1135=T -0.6044=T 0.435=T 8.73932=T 0.11351=T 4.6805706888=T 5.3688665692=T 0.342682119=T pbc="F F F"
C        0.93187284      -0.09592090      -0.12685488
C        2.45507632      -0.04207138      -0.20948722
C        2.98083707      -0.84691201      -1.40620831
O        4.39019237      -1.03235057      -1.39753373
N        2.85257955       1.37341618      -0.33203164
N        4.17981583       1.61553447      -0.49460598
C        4.66304239       2.76522181      -0.17607684
H        0.55299990       0.51480853       0.70658593
H        0.59873616      -1.12793113       0.04373997
H        0.47407371       0.27272783      -1.05643495
H        2.89298428      -0.48367403       0.70766171
H        2.63839040      -0.34835189      -2.33595847
H        2.53042745      -1.85133816      -1.37627602
H        4.75786423      -0.13370299      -1.24023701
H        2.37801393       1.99924703       0.33300604
H        5.71862550       2.94453941      -0.37549048
H        4.05418808       3.56665781       0.27117188
