16
Properties=species:S:1:pos:R:3 -1616.6311560034676=T 10.661796=T 12.05214=T -9.3=T -7.2181=T -10.688=T 1.2423=T -0.5853=T 0.157=T 9.74054=T 0.56972=T 3.7412279556=T 8.1556874926=T 0.143698006=T pbc="F F F"
C        0.98917318      -0.11892585      -0.18198264
C        2.46072304      -0.26361936       0.15558795
O        2.96024104      -1.34961101       0.41480791
C        3.27512923       1.02458084       0.16138147
C        4.76653808       0.81414596       0.24933426
C        5.61694590       0.74797714      -0.96752024
N        5.59597662       1.97656502      -0.13892478
H        0.52662395       0.69149561       0.40037930
H        0.46658104      -1.06383023       0.00180429
H        0.88321086       0.15377223      -1.24364210
H        2.92462046       1.62607270       1.02104938
H        3.02660059       1.62813127      -0.72739336
H        5.09565829       0.20775045       1.09742973
H        5.15819970       0.85967458      -1.95359324
H        6.49778903       0.10249715      -0.94079234
H        6.43743898       2.00986349       0.44471441
