17
Properties=species:S:1:pos:R:3 -1734.5763021881992=T 13.008843=T 13.16304=T -8.5762=T -6.5536=T -8.373=T 0.6267=T -0.8616=T 0.29=T 7.86305=T 0.28865=T 5.0424114312=T 0.743987895=T pbc="F F F"
C        0.90117052      -0.29848897      -0.18501633
C        2.36276807       0.01612560      -0.21489135
C        2.99209842       1.18540855       0.07110902
C        2.24803112       2.43467199       0.48339197
O        2.46854629       2.80546562       1.85810658
C        4.45405706       1.24319337      -0.02670009
C        5.23618840       2.29441875       0.28005359
H        0.70793912      -1.16114654       0.47318467
H        0.54802796      -0.59575566      -1.18634387
H        0.27722064       0.53537033       0.15873643
H        3.00453684      -0.82297527      -0.51086695
H        1.16933087       2.33134208       0.28132273
H        2.60739977       3.29153189      -0.10702346
H        2.36136995       1.99784946       2.39118398
H        4.93030680       0.32465123      -0.38877903
H        4.82878591       3.22392096       0.67994478
H        6.31787225       2.23573663       0.15716732
