10
Properties=species:S:1:pos:R:3 -1101.2123067853413=T 8.856449=T 9.41668=T -9.4227=T -7.3679=T -10.477=T 1.287=T -0.6273=T 0.073=T 10.26178=T 0.45481=T 4.476576523=T 10.949699604=T 0.539677301=T pbc="F F F"
C        0.98940504      -0.00492989      -0.03990137
C        2.20116273      -0.01096496      -0.01253440
C        3.66188589       0.01171201       0.07065030
O        4.24292227      -1.12235578      -0.63283097
C        4.76628210      -0.55491177      -1.75834097
N        4.78828887       0.72381846      -1.82381736
O        4.23039471       1.17410635      -0.58152074
H       -0.08127840       0.00228647      -0.07993718
H        4.00604550      -0.01092419       1.11631085
H        5.15412129      -1.21652672      -2.52737816
