18
Properties=species:S:1:pos:R:3 -1822.550839618341=T 12.219595=T 12.99612=T -8.7899=T -6.6268=T -8.635=T 0.9283=T -0.0475=T 1.514=T 8.07925=T -0.81946=T 5.8926702234=T 0.301530513=T pbc="F F F"
C        0.99080504       0.02129555       0.01772189
C        2.48293132      -0.02036399      -0.05219525
C        3.27384159      -1.10603307      -0.09555675
C        4.74215984      -0.76309419      -0.06436452
C        4.74422197       0.75624649      -0.34756672
C        3.31583466       1.25533145       0.00989820
N        2.75522062       2.33949670      -0.81082092
H        0.55546757      -0.98476942      -0.04790485
H        0.57407942       0.64746817      -0.78510078
H        0.65977037       0.48227598       0.96345196
H        2.90707740      -2.13508757      -0.09220271
H        5.17056394      -0.98904518       0.92937294
H        5.33804843      -1.33578256      -0.79303119
H        4.90133930       0.92684063      -1.42557892
H        5.53434785       1.30012714       0.19008874
H        3.29165415       1.62814155       1.05317887
H        2.88089047       2.11199204      -1.80258643
H        3.27839606       3.20314027      -0.64776356
