17
Properties=species:S:1:pos:R:3 -1714.4315783672619=T 12.351759=T 14.48857=T -9.5132=T -7.1647=T -9.264=T 0.876=T 0.001=T 2.428=T 8.85913=T -2.00456=T 4.1526135036=T 10.1250935152=T 0.844097325=T pbc="F F F"
C        1.06965658      -0.22959015       0.15321753
O        2.48081592      -0.09130560       0.08019903
C        2.87838117       1.27458916       0.08608750
C        4.40714098       1.32246734       0.00081901
C        4.91582676       2.68869335       0.00099568
C        5.31357288       3.83779750       0.00059728
C        5.79759447       5.21091524       0.00027083
H        0.84906415      -1.30442695       0.14583806
H        0.56932848       0.24781649      -0.71066118
H        0.66514508       0.21569923       1.08199052
H        2.53412492       1.77651723       1.01176566
H        2.43335761       1.81357437      -0.77343418
H        4.72563061       0.79542228      -0.91361942
H        4.82507772       0.75783252       0.85049871
H        5.00030273       5.91254622      -0.28754782
H        6.62757027       5.34054066      -0.71040317
H        6.16013967       5.50754111       0.99591596
