16
Properties=species:S:1:pos:R:3 -1576.7993190038928=T 10.776129=T 11.67676=T -9.5126=T -7.3245=T -9.331=T 1.2796=T -0.1615=T 1.217=T 8.79968=T -0.60753=T 6.3582004576=T 0.404900368=T pbc="F F F"
C        1.98598243      -0.62034257       1.07993956
C        2.85947019      -0.18215749      -0.10565987
C        3.15665811       1.28799759      -0.09278093
C        4.37783517       1.84059650      -0.03862912
C        4.62766830       3.31682015       0.00039908
O        5.31055143       3.72502913       1.20120426
H        1.76547648      -1.69615927       1.03101316
H        1.02681446      -0.08103599       1.08801458
H        2.49147174      -0.41837191       2.03544104
H        2.33463348      -0.43377631      -1.04439375
H        3.80306931      -0.75044261      -0.11188098
H        2.28436149       1.95559433      -0.12537848
H        5.26630309       1.19929821       0.00640722
H        3.67501795       3.86558923      -0.12209159
H        5.29709408       3.62350160      -0.81866057
H        4.79559229       3.37200940       1.94910639
