13
Properties=species:S:1:pos:R:3 -1387.2157943004922=T 10.303751=T 10.7217=T -7.3405=T -5.4173=T -7.724=T 0.8777=T -0.1051=T 1.012=T 7.34922=T -0.39292=T 4.538011586=T 6.260797056=T 0.381637637=T pbc="F F F"
N        0.86583387      -0.15334670       0.04345543
C        2.27877509      -0.03542637       0.02732200
C        3.17209034       1.01911201       0.05723513
C        4.50124881       0.48369463       0.01540358
C        4.36781910      -0.89165723      -0.03942263
O        5.26749625      -1.92463382      -0.09450708
N        3.03698292      -1.20621566      -0.03236561
H        0.43455459       0.30272992      -0.76247620
H        0.45791803       0.25069509       0.88819786
H        2.90393818       2.07093921       0.10319557
H        5.43461514       1.03911240       0.02569110
H        6.15966942      -1.53797817      -0.10068905
H        2.64457827      -2.14152531      -0.06378010
