19
Properties=species:S:1:pos:R:3 -1867.708237143116=T 11.775388=T 13.26279=T -9.3648=T -7.2224=T -11.233=T 0.9655=T 0.1022=T 2.961=T 10.63824=T -2.72756=T 9.0643932852=T 9.774870261=T 0.08677297=T pbc="F F F"
C        2.01135533      -0.46234762      -1.29335015
O        2.21919224       0.10038313      -0.00318065
C        3.00517472       1.27760825      -0.04837233
C        2.37775757       2.61261084      -0.53978893
C        3.14306194       3.31221537       0.61723767
C        3.26989298       1.93067692       1.32403176
C        4.52776174       1.57317310       2.09730438
H        1.41930170      -1.37621489      -1.15478644
H        2.97053229      -0.72405168      -1.78023874
H        1.45688232       0.22608403      -1.95746928
H        3.95913483       1.07676031      -0.58089980
H        1.29289708       2.60895612      -0.35759312
H        2.57747293       2.94016460      -1.56880528
H        4.12544156       3.68475495       0.28897337
H        2.62524830       4.11456951       1.15897832
H        2.37254026       1.76124273       1.94253859
H        5.42844045       1.73895201       1.48544898
H        4.51520842       0.51638476       2.40301994
H        4.62551335       2.18314755       3.00815171
