16
Properties=species:S:1:pos:R:3 -1678.118993172673=T 11.813544=T 12.96807=T -10.0939=T -7.9206=T -9.878=T 1.2349=T -0.4155=T 0.957=T 9.33127=T -0.39429=T 5.3689781566=T 6.657366277=T 0.480857354=T pbc="F F F"
C        1.02225551       0.00735692       0.44287482
C        2.49408858      -0.00168122      -0.00583230
C        2.69288932      -0.62335345      -1.41810769
C        2.34717143      -2.08276920      -1.45997825
C        1.42683672      -2.63068127      -2.26097631
C        3.05093196       1.35379390       0.02329275
N        3.48544258       2.43674883       0.03240608
H        0.92279354       0.41377133       1.45722622
H        0.62587889      -1.01602896       0.43040458
H        0.41547332       0.62238537      -0.23603923
H        3.08274745      -0.59607885       0.71566466
H        3.74922192      -0.48881002      -1.70352003
H        2.08738315      -0.06272543      -2.14718408
H        2.91702285      -2.73093514      -0.78289283
H        0.83915105      -2.02234804      -2.95321259
H        1.23641174      -3.70469477      -2.26004579
