14
Properties=species:S:1:pos:R:3 -1545.537399585891=T 14.301312=T 13.70761=T -8.9139=T -7.0588=T -8.657=T -0.5355=T -2.0882=T -0.758=T 8.14984=T 1.32198=T 4.4153646348=T 0.846886106=T pbc="F F F"
C        0.83045135      -0.27493686      -0.43268300
C        2.31965010      -0.25514160      -0.36850043
C        3.06017122       0.67086085       0.28163425
C        4.49982433       0.64847002       0.31776887
C        5.25814322       1.56985786       0.96837055
C        6.67427135       1.52922790       0.99185439
N        7.84559638       1.52076839       1.02817995
H        0.43279443      -1.21549178      -0.01821382
H        0.48251966      -0.23069726      -1.47747611
H        0.38346412       0.56340660       0.11779527
H        2.84511583      -1.06135132      -0.89390099
H        2.55502997       1.48534860       0.81345910
H        5.00433127      -0.16430870      -0.21362099
H        4.79024675       2.39611731       1.51036294
