10
Properties=species:S:1:pos:R:3 -1017.2998699806847=T 7.036768=T 7.37066=T -9.6013=T -7.3248=T -10.603=T 0.8847=T -1.0309=T 0.23=T 9.82036=T 0.48253=T 3.7501673462=T 14.5224429842=T 0.166446339=T pbc="F F F"
O        1.11940989      -0.01328754       0.65803833
C        2.25201699      -0.01200016       0.24360296
C        3.29698801       1.06875911      -0.07460621
N        4.30649936      -0.01970709      -0.25381387
C        3.26821674      -1.09167657      -0.16006269
H        3.52361894       1.77607815       0.73867661
H        3.03148938       1.63993641      -0.98176261
H        4.76718047       0.01017437      -1.16412864
H        2.98841611      -1.58185530      -1.10934225
H        3.47506412      -1.86701139       0.59433837
