18
Properties=species:S:1:pos:R:3 -1741.0084769230234=T 11.470942=T 12.98833=T -8.6924=T -6.5735=T -9.996=T 1.0084=T 0.073=T 3.318=T 9.26393=T -3.04731=T 8.0242003396=T 12.9455890362=T 0.188646254=T pbc="F F F"
C        1.11111181      -0.10848135      -0.40684202
C        2.61148668      -0.19520838      -0.15229999
N        3.16976728       1.12659386       0.15822400
C        4.58590524       1.10495630       0.41879307
C        5.52973260       1.24517113      -0.76652406
C        5.35833493       2.37364069       0.22420280
O        6.36976478       2.64379412       1.17202844
H        0.70395704      -1.09276992      -0.67653443
H        0.89587120       0.59553414      -1.22285853
H        0.57421085       0.23730708       0.49038453
H        3.12571495      -0.56409289      -1.05520576
H        2.81391981      -0.93932123       0.64873636
H        2.68118984       1.51966101       0.96854410
H        4.96495525       0.46392573       1.22963045
H        5.08093582       1.37066163      -1.75259029
H        6.46098998       0.67948643      -0.72652804
H        4.77908237       3.24133986      -0.10940195
H        7.10625957       3.06972180       0.69856129
