18
Properties=species:S:1:pos:R:3 -1771.2826273711012=T 11.548481=T 12.3733=T -9.2033=T -7.0133=T -9.094=T 0.8993=T 0.0051=T 1.476=T 8.45545=T -0.8333=T 6.3752485326=T 0.414122288=T pbc="F F F"
C        0.95261288      -0.13335324      -0.23676222
C        2.46785662       0.05686766      -0.04261329
C        3.25827406      -0.84404907      -1.00817308
C        2.87878158       1.51874417      -0.15219184
C        2.68403113       2.21178984      -1.47678897
C        3.39719818       2.16569355       0.90364354
H        0.38035948       0.49679639       0.45897197
H        0.67268696      -1.18212154      -0.05754070
H        0.64114176       0.11909392      -1.26177569
H        2.71317598      -0.26113306       0.98529604
H        3.01734963      -0.62074209      -2.05865178
H        3.01154055      -1.90167646      -0.83260627
H        4.34223407      -0.71950346      -0.87250487
H        1.62934183       2.19072835      -1.79355230
H        3.26344655       1.72348953      -2.27622947
H        3.00029138       3.26161186      -1.42334585
H        3.54035909       1.66325057       1.86296824
H        3.69394826       3.21510310       0.84353654
