13
Properties=species:S:1:pos:R:3 -1381.2208741716436=T 9.643957=T 10.06252=T -9.1119=T -7.2202=T -9.891=T 0.6113=T -1.1318=T -0.14=T 9.39792=T 0.71199=T 4.3829918902=T 5.19873298=T 0.156822728=T pbc="F F F"
C        0.96217991       0.01056632      -0.10580788
C        2.48929926      -0.03229865       0.03678741
C        3.18625546      -1.20165539      -0.59342141
N        4.10132824      -0.86712579      -1.44797174
N        4.12631424       0.52011993      -1.48711070
C        3.19010873       1.14196190      -0.67583986
O        2.98870461       2.34283674      -0.57458302
H        0.58815409       0.97683680       0.25711434
H        0.49093111      -0.79194915       0.47683988
H        0.66366329      -0.10205377      -1.15675108
H        2.75538830       0.03272054       1.10734271
H        2.99333724      -2.25640217      -0.39827935
H        4.75031551       0.98404270      -2.14068932
