15
Properties=species:S:1:pos:R:3 -1543.8547374323416=T 9.776765=T 10.76062=T -9.185=T -7.0374=T -10.629=T 0.8886=T -0.0755=T 2.701=T 10.315=T -2.36885=T 8.1024479042=T 10.8453901822=T 0.118455118=T pbc="F F F"
O        1.51079022      -0.24413399      -0.80723139
C        2.73179326       0.06048600      -0.17460787
C        3.52367684      -1.03243618       0.51709347
C        4.01669087      -0.41349238      -0.78098784
O        5.00293817       0.59311995      -0.66561094
C        4.30104839       1.84723700      -0.48268286
C        3.00261470       1.50618560       0.27027649
H        0.86011047      -0.44410721      -0.11017343
H        3.12709364      -2.04681139       0.44353298
H        4.06457962      -0.79018969       1.43359079
H        4.04320807      -1.00764742      -1.69703426
H        4.97654498       2.52328344       0.05884947
H        4.06843239       2.28670493      -1.47033700
H        3.12715435       1.58684465       1.36103008
H        2.16771405       2.14992669      -0.03762768
