19
Properties=species:S:1:pos:R:3 -1806.9439909370117=T 12.189857=T 13.62906=T -8.6783=T -6.53=T -9.908=T 0.9303=T 0.0075=T 3.291=T 9.21495=T -2.96303=T 8.0221545706=T 11.0788682188=T 0.205729711=T pbc="F F F"
C        1.79031598      -0.61492621      -0.79755889
N        1.80256115       0.55215128       0.08562461
C        3.06407528       1.25023201       0.08104874
C        3.24979968       2.35684015      -0.93448925
C        3.08049560       2.68542700       0.53693704
C        4.24345938       3.22834617       1.33395549
N        4.31069947       4.69315605       1.20358841
H        0.82431272      -1.13118678      -0.70891201
H        2.59839489      -1.34845228      -0.59440661
H        1.89880693      -0.28059532      -1.84023175
H        1.57590982       0.26464635       1.04084851
H        3.96901581       0.66030924       0.30425289
H        2.40713962       2.56062753      -1.59556646
H        4.23955845       2.47640341      -1.38014283
H        2.10518835       3.09501280       0.81051620
H        5.16820573       2.70111485       1.01727830
H        4.09729157       2.99588936       2.40289971
H        4.45935129       4.93834620       0.22057837
H        5.11715828       5.05478820       1.71792953
