17
Properties=species:S:1:pos:R:3 -1764.9098459779043=T 12.352478=T 13.86608=T -9.8507=T -7.5677=T -9.722=T 0.9777=T 0.0689=T 2.346=T 9.27006=T -1.91086=T 4.3483502018=T 10.3909938908=T 0.421902492=T pbc="F F F"
C        1.14460414       0.23572891       0.05980694
C        2.65567316      -0.01392709      -0.12156257
C        2.91843163      -0.81393950      -1.32067234
C        3.12217685      -1.46482332      -2.32557159
C        3.44193108       1.29496117      -0.15090154
C        3.83068469       1.95739351       1.14911162
C        4.88773370       1.32447728       0.27015314
H        0.96698735       0.80637336       0.98186881
H        0.59362866      -0.71217300       0.11746506
H        0.74620992       0.81090331      -0.78781086
H        3.01430953      -0.59531258       0.74900762
H        3.31280204      -2.03685109      -3.21033686
H        3.16223205       1.95822220      -0.97390220
H        3.57146088       1.44366004       2.07707274
H        3.78733314       3.04515836       1.20971248
H        5.57029320       1.97790266      -0.27328604
H        5.33300798       0.38681579       0.60712561
