14
Properties=species:S:1:pos:R:3 -1542.304937485449=T 12.751001=T 12.84226=T -9.0772=T -7.1514=T -8.795=T -0.2456=T -1.8384=T -0.472=T 8.30799=T 1.12802=T 4.8131861144=T 0.641643092=T pbc="F F F"
C        0.86251886       0.07550453      -0.09665457
C        2.34051611       0.07556110      -0.30389670
C        3.20772291       0.87057265       0.35178243
C        4.65772380       0.87671243       0.15379762
C        5.50251319       1.69109553       0.83187407
C        5.20314943      -0.03522584      -0.81561557
N        5.62187602      -0.78492868      -1.60835931
H        0.51199567      -0.92127473       0.21596940
H        0.33620355       0.30405623      -1.03734828
H        0.55103365       0.80635552       0.66161229
H        2.73379925      -0.62760494      -1.04667184
H        2.83856201       1.58108813       1.09843753
H        5.11520388       2.39171777       1.57196226
H        6.57655169       1.66838030       0.65822066
