9
Properties=species:S:1:pos:R:3 -945.0846322901556=T 9.838246=T 10.78487=T -10.4021=T -8.5049=T -10.906=T -0.5974=T -2.6425=T -2.084=T 10.54151=T 2.86982=T 3.5940069792=T 8.9942296078=T 0.123580885=T pbc="F F F"
O        2.83500974      -1.03074520      -0.12039010
C        2.24715342       0.00384529      -0.00141065
S        3.06881594       1.69525723       0.09128930
O        2.64998380       2.42663740      -1.11137809
O        2.80646225       2.21003921       1.44147991
C        4.73638806       1.28762322      -0.04563889
C        5.90185491       0.96404244      -0.14786435
H        1.14346759       0.13917653       0.07325169
H        6.93450428       0.68698388      -0.23851883
