16
Properties=species:S:1:pos:R:3 -1672.5270503627005=T 11.339716=T 12.14627=T -8.5792=T -6.526=T -8.665=T 1.0956=T 0.0363=T 1.305=T 8.13258=T -0.63794=T 5.7158909846=T 0.25250019=T pbc="F F F"
C        1.04483200      -0.12613975       0.04960775
C        2.51591104       0.13918783      -0.00405951
C        3.16478605       1.27647404       0.32178310
C        4.65533234       1.17305274       0.09069601
C        4.85845945      -0.28564213      -0.31320155
N        4.47118701      -1.34872930       0.63134411
C        3.50038426      -0.91546381      -0.41341945
H        0.81363819      -0.96000302       0.73200697
H        0.66337563      -0.41878526      -0.94236621
H        0.48594027       0.75899612       0.38086238
H        2.68885979       2.16576290       0.73972198
H        4.98445593       1.84903058      -0.71766225
H        5.24780880       1.44610793       0.98145657
H        5.67811980      -0.55068047      -0.98383838
H        4.18812055      -0.92507187       1.52456155
H        3.23356889      -1.68207651      -1.14520307
