11
Properties=species:S:1:pos:R:3 -1259.4175740350188=T 10.028454=T 10.63373=T -9.9132=T -7.85=T -11.055=T -0.7201=T -2.5193=T -1.172=T 10.14559=T 1.75474=T 3.5384860484=T 10.8399223996=T 0.256852468=T pbc="F F F"
O        1.53388849       0.68934722      -1.57553846
C        2.17203677       0.10508360      -0.72683517
C        2.94900460       0.81800985       0.38003291
C        4.28158841       0.12660531       0.62827267
O        4.34025752      -1.05465919       0.95519106
C        5.46877953       0.92621417       0.41667670
C        6.45931644       1.61172495       0.25144807
H        2.23158097      -1.00883707      -0.68488607
H        2.35193204       0.68870507       1.29894799
H        3.03927818       1.88553553       0.14810591
H        7.34357704       2.20050056       0.10701439
