10
Properties=species:S:1:pos:R:3 -1137.8349419742062=T 13.852984=T 12.88241=T -8.9431=T -7.0507=T -9.033=T -0.5517=T -2.1673=T -0.806=T 8.50578=T 1.43261=T 2.8751981442=T 7.9125261494=T 1.52550911=T pbc="F F F"
O        0.88426319       0.16634847       0.00000000
N        2.25617519      -0.11146097       0.00000000
C        2.93354622       0.99763757       0.00000000
C        4.33817181       0.97016262       0.00000000
C        5.56368539       1.04575244       0.00000000
C        6.91604345       1.10589197       0.00000000
C        8.13677302       1.16085671       0.00000000
H        0.49420419      -0.72752362       0.00000000
H        2.42164251       1.97019151       0.00000000
H        9.20616505       1.20665331       0.00000000
