14
Properties=species:S:1:pos:R:3 -1396.5152414725724=T 9.426322=T 9.94166=T -8.9782=T -6.976=T -10.541=T 1.0014=T -0.149=T 0.278=T 10.09237=T 0.26674=T 5.3582657662=T 6.2801016762=T 0.1605473=T pbc="F F F"
C        1.69145697      -0.16077295      -0.10031541
C        0.78082444      -1.14937421       0.60742140
O       -0.42880102      -1.42451771      -0.15817010
C       -1.39907853      -0.47305756      -0.11595488
N       -1.39714537       0.79294012       0.12300160
O       -0.13980342       1.44013267       0.35749261
C        0.89034838       1.05797537      -0.57510833
H        2.18844749      -0.63366026      -0.96184991
H        2.47762902       0.14309694       0.60848541
H        1.25704838      -2.13058406       0.73035552
H        0.48230150      -0.77327862       1.59640909
H       -2.38201525      -0.89106235      -0.35143981
H        1.53276792       1.94623217      -0.66742605
H        0.42584948       0.87061046      -1.55672115
