17
Properties=species:S:1:pos:R:3 -1619.4742506965226=T 11.640813=T 12.13352=T -8.7996=T -6.7634=T -9.416=T 1.2228=T -0.3153=T 0.64=T 8.96398=T -0.04101=T 4.9002242864=T 5.6714791994=T 0.180391925=T pbc="F F F"
C        1.04248737       0.15374734       0.25893639
C        2.55677000      -0.02195287       0.14072644
C        3.06441484      -1.13335787       1.06366338
O        2.91142196      -0.47030675      -1.20045318
C        3.32150851       1.25694358       0.40527799
N        2.73400342       2.37985490       0.61240810
N        3.50819786       3.51065959       0.70961614
H        0.68587652       0.95117244      -0.40715117
H        0.75374553       0.42864071       1.28229763
H        0.55048138      -0.78955374      -0.01303907
H        2.83948375      -0.89682983       2.11239452
H        4.15057488      -1.25889208       0.95297834
H        2.57987822      -2.08414342       0.80085653
H        2.61296101       0.22397410      -1.81613167
H        4.42397721       1.17276266       0.35220446
H        3.04010401       4.21121681       1.28102106
H        4.47776352       3.35293443       1.01236411
