15
Properties=species:S:1:pos:R:3 -1498.4197105354672=T 11.938202=T 11.88825=T -8.1833=T -6.2815=T -8.843=T 1.0492=T -0.3508=T 0.535=T 8.13555=T -0.01487=T 4.8781795756=T 5.2932599064=T 0.49903776=T pbc="F F F"
O        0.60347887      -0.09662107      -0.49798915
C        1.96757246      -0.42886744      -0.27808929
C        2.86096212       0.80839653      -0.17524384
N        2.43877857       2.02335631      -0.17817761
N        4.22581645       0.58505937      -0.08409113
C        4.89836332      -0.62631126      -0.00276242
C        6.23258997      -0.76261684       0.10370840
H        0.51343547       0.20040569      -1.42119677
H        2.34883606      -1.10200516      -1.06639299
H        1.99704699      -0.98625396       0.67120125
H        1.41162857       2.01549418      -0.21870797
H        4.77177359       1.44497430      -0.01869781
H        4.25951342      -1.50971460      -0.02640082
H        6.90350937       0.09723482       0.13378357
H        6.67271477      -1.75441085       0.16605658
