11
Properties=species:S:1:pos:R:3 -1177.0014917312828=T 10.076544=T 10.94902=T -9.7769=T -7.5306=T -9.619=T 0.9013=T -0.3676=T 1.8=T 9.32982=T -1.53816=T 4.3724158844=T 11.054715746=T 0.866741776=T pbc="F F F"
N        0.96431561      -0.00755243      -0.00128216
C        2.44797227      -0.00661443      -0.01361818
C        2.94113384      -0.76923431      -1.17018035
C        3.34845144      -1.44173938      -2.09241584
C        2.94959952       1.37548188      -0.02853846
C        3.36572130       2.51294058       0.01303687
H        0.64884522       0.47750486       0.84310150
H        0.64345532      -0.97701192       0.06909307
H        2.88954546      -0.48791915       0.88712518
H        3.70615272      -2.02008884      -2.91977104
H        3.72928731       3.52017315       0.02943941
