15
Properties=species:S:1:pos:R:3 -1671.5130438219567=T 13.310592=T 13.05666=T -8.1076=T -6.1914=T -8.145=T -0.3041=T -1.8365=T -0.515=T 7.39816=T 1.03529=T 3.2912951602=T 6.0106429024=T 0.594978286=T pbc="F F F"
C        0.95169023       0.05492075       0.00466714
C        2.44369296      -0.01773749       0.00268011
C        3.23568783      -1.12795647      -0.00019930
C        4.64008949      -0.69651330      -0.00096824
C        5.73715791      -1.48476432      -0.00360013
C        4.62339816       0.77788253       0.00147323
C        3.32420401       1.17428051       0.00376008
H        0.49730353      -0.94424948       0.00150628
H        0.58079484       0.60410372      -0.87606968
H        0.58283947       0.59751530       0.89035266
H        2.90812785      -2.16617143      -0.00162488
H        5.65428507      -2.57308772      -0.00553761
H        6.74178012      -1.05831402      -0.00417566
H        5.51111456       1.40705516       0.00147984
H        2.95984396       2.20187625       0.00591616
