12
Properties=species:S:1:pos:R:3 -1283.6433743809034=T 11.654651=T 12.20473=T -8.7379=T -6.9289=T -9.228=T 0.8727=T -0.6785=T -0.333=T 8.54=T 0.91845=T 4.6137422348=T 9.8898796746=T 0.363179717=T pbc="F F F"
C        0.97325521      -0.00583907       0.00338283
C        2.47596271       0.05447774       0.00258688
N        3.06939302       1.24631145      -0.00101815
S        4.74188094       1.03344429       0.00086105
C        4.65345647      -0.70486385       0.00622413
O        5.79352537      -1.44161757       0.00879412
C        3.32842938      -1.08843325       0.00665019
H        0.61798360      -1.04352788      -0.01147721
H        0.56652020       0.51577810      -0.87395950
H        0.56833945       0.48886275       0.89721106
H        5.55616437      -2.38704079       0.01116669
H        2.98243928      -2.12149193       0.00937792
