12
Properties=species:S:1:pos:R:3 -1300.708068628256=T 8.678432=T 9.20108=T -8.2844=T -6.2114=T -8.787=T 1.12=T 0.1292=T 1.21=T 8.41708=T -0.67452=T 5.676265059=T 11.8604015712=T 0.262864777=T pbc="F F F"
C        0.38878015       1.42299110       0.52393971
C        0.85058663       0.37422230      -0.44391357
O        0.90318524      -0.98571355       0.00084998
C       -0.39567903      -1.34405200       0.29681839
C       -1.31384364      -0.39899423       0.02579293
C       -0.61005139       0.81842549      -0.46141668
H        0.74085044       2.43464102       0.32082899
H        0.28497781       1.15720633       1.57665376
H        1.59113930       0.58588361      -1.21414837
H       -0.50442681      -2.34409227       0.70986800
H       -2.38788181      -0.50520123       0.14838929
H       -1.03606690       1.43932342      -1.25081243
