19
Properties=species:S:1:pos:R:3 -1759.4144999170715=T 11.632797=T 12.76965=T -8.7541=T -6.6116=T -10.058=T 0.8903=T -0.1323=T 3.248=T 9.32458=T -3.01772=T 8.1069733932=T 8.7472494958=T 0.137960906=T pbc="F F F"
N        2.17406088       0.86975361       1.37605997
C        1.81422019       2.13681159       0.72987917
C        2.87399689       3.24362280       0.79013333
N        4.10533835       2.81404683       0.12493788
C        5.19307257       3.78418050       0.23113848
C        6.39502889       3.33793694      -0.57989321
O        6.00549188       3.32340541      -1.96526959
H        3.12430316       0.62814484       1.07577491
H        2.23683022       1.01468703       2.38819289
H        0.87841204       2.50834859       1.17627750
H        1.58282950       1.92559789      -0.32990532
H        3.11683936       3.45697632       1.84697586
H        2.45679663       4.18396283       0.36293922
H        3.91538046       2.67371457      -0.87273060
H        5.49553945       3.86573614       1.28896899
H        4.89888142       4.80382722      -0.10278904
H        6.70416173       2.32954949      -0.25128349
H        7.23229401       4.04058681      -0.41488595
H        6.71902238       2.90830060      -2.47676099
