16
Properties=species:S:1:pos:R:3 -1669.4405787485891=T 11.293377=T 11.93053=T -8.7433=T -6.7266=T -8.959=T 1.2293=T -0.2513=T 1.214=T 8.49726=T -0.58601=T 5.8886282798=T 0.241634251=T pbc="F F F"
C        0.97939240       0.05165679      -0.01183832
C        2.51433942      -0.00448575      -0.00496639
C        3.14068393       1.30021849       0.44974885
C        3.79976187       1.16421126       1.61558065
C        3.81390900      -0.25799083       2.06259782
N        4.49903062      -1.22037567       1.15215530
C        3.04870683      -1.01732261       1.01415892
H        0.55467233      -0.91558223      -0.32021722
H        0.61391748       0.81978465      -0.70830935
H        0.59753576       0.29395337       0.99068556
H        2.85835785      -0.26597946      -1.02360480
H        3.06647453       2.22094378      -0.13216728
H        4.30475874       1.96579425       2.15648634
H        3.83344078      -0.52650385       3.12057936
H        4.99231630      -0.67945810       0.43008523
H        2.43883218      -1.89188408       1.25605532
