10
Properties=species:S:1:pos:R:3 -1203.4816095576014=T 10.69752=T 10.67922=T -9.0947=T -7.0732=T -8.546=T 0.1745=T -1.4714=T -0.46=T 8.13119=T 1.05159=T 3.92725655=T 8.0997326108=T 0.284063105=T pbc="F F F"
C        0.98810836      -0.03397095       0.00196086
C        2.20118608       0.02678188      -0.00098074
C        3.60823792       0.09842445      -0.00441578
N        4.37497533       1.16365675      -0.00807489
C        5.66482900       0.66391116      -0.01026648
C        5.62495397      -0.70018526      -0.00775200
O        4.31329649      -1.09312544      -0.00398220
H       -0.08162097      -0.08199138       0.00451846
H        6.53176495       1.31734779      -0.01344483
H        6.36666886      -1.49032899      -0.00811241
