10
Properties=species:S:1:pos:R:3 -1143.835843716773=T 11.635536=T 11.83363=T -9.6794=T -7.8288=T -10.024=T -0.6053=T -2.376=T -0.933=T 9.30711=T 1.22053=T 3.4348585496=T 10.6640482586=T 1.234323466=T pbc="F F F"
N        1.02380695       0.03828186       0.00000000
C        2.39680474      -0.08945193       0.00000000
N        3.11756389      -1.16152270       0.00000000
C        3.09898203       1.17162399       0.00000000
C        3.68458103       2.24229031       0.00000000
C        4.34082030       3.43659619       0.00000000
N        4.89590082       4.47170044       0.00000000
H        0.58335694       0.95038465       0.00000000
H        0.43341160      -0.78468212       0.00000000
H        2.53043170      -2.00753069       0.00000000
