21
Properties=species:S:1:pos:R:3 -2020.4700584208183=T 12.339632=T 13.90375=T -9.9835=T -7.7932=T -11.89=T 0.8543=T -0.0887=T 2.854=T 11.41554=T -2.58615=T 9.7040618564=T 10.3856624928=T 0.094508551=T pbc="F F F"
C        1.87159040      -0.93792192       0.47937116
C        3.32139241      -0.46099142       0.33038011
C        4.06042895      -1.29873453      -0.72085810
C        3.36100708       1.04274185       0.00683626
C        4.74460586       1.70110638       0.08353926
C        4.69910581       3.17714357      -0.30648173
O        5.34644432       1.52611768       1.38215733
H        1.34150767      -0.37599534       1.26332464
H        1.82963889      -2.00521647       0.74352517
H        1.31305628      -0.80634774      -0.46200570
H        3.83343147      -0.60035457       1.29827864
H        3.60433764      -1.17047162      -1.71667041
H        4.01521797      -2.36888573      -0.47000173
H        5.12236952      -1.02535595      -0.79632304
H        2.68932130       1.58134776       0.70251215
H        2.94610519       1.20852574      -1.00455706
H        5.43803820       1.17813065      -0.59532067
H        4.01575020       3.73513553       0.35513239
H        4.34034973       3.30415125      -1.33866282
H        5.69880655       3.62520636      -0.22694220
H        4.80109457       2.01989851       2.02202633
