17
Properties=species:S:1:pos:R:3 -1744.867044263353=T 11.728321=T 12.5573=T -9.3524=T -7.2286=T -9.592=T 0.7286=T -1.0971=T -0.202=T 8.96435=T 0.8277=T 3.6743127114=T 5.6544187258=T 0.195090647=T pbc="F F F"
C        0.89758392      -0.24383484       0.17819934
C        2.34229896       0.15942272      -0.12041278
C        3.06111961      -0.86229171      -1.00117343
O        2.54143970      -1.83113936      -1.51986498
C        2.51081023       1.52790235      -0.77257577
C        1.65165382       1.82060971      -1.97433326
C        3.42492263       2.39933740      -0.31714080
H        0.41568307       0.50247786       0.82403102
H        0.87076206      -1.21698936       0.68587947
H        0.31005885      -0.34581045      -0.74327191
H        2.93005033       0.17899249       0.81649269
H        4.14879415      -0.63771271      -1.15288031
H        1.74063366       1.02841372      -2.73495205
H        1.93158767       2.77624419      -2.43511932
H        0.58653144       1.87291918      -1.70073742
H        4.03931802       2.18014084       0.55837494
H        3.57840190       3.36542797      -0.80203543
