17
Properties=species:S:1:pos:R:3 -1750.3427705441316=T 11.44493=T 12.36942=T -9.354=T -7.1356=T -9.325=T 1.0351=T -0.3134=T 1.277=T 8.70068=T -0.61886=T 6.3681317362=T 0.397870045=T pbc="F F F"
O        0.96803165       0.07322027       0.04161786
C        2.39425262       0.00134049       0.03948116
C        2.98839405       1.14788011       0.86472657
C        4.41144826       0.65978907       1.16973744
C        4.22831143      -0.84528812       1.46432213
C        3.00906884      -1.25628880       0.65573552
C        2.52298367      -2.49408726       0.51755065
H        0.62723317      -0.68064557      -0.46984916
H        2.77024359       0.08696862      -1.00286138
H        2.39978105       1.23991208       1.79249226
H        2.94987523       2.11141935       0.33957134
H        5.05360915       0.79692172       0.28449189
H        4.88175170       1.20316886       2.00021261
H        5.11799124      -1.44708103       1.22823331
H        4.01579691      -0.99664531       2.53607744
H        1.61647724      -2.69794085      -0.05856209
H        2.99922020      -3.35669364       0.98737244
