12
Properties=species:S:1:pos:R:3 -1254.3618616360623=T 8.441208=T 8.76432=T -8.7543=T -6.5959=T -9.208=T 0.9052=T -0.2843=T 1.131=T 8.77667=T -0.60394=T 5.9863292478=T 0.244781472=T pbc="F F F"
O        0.95719582      -0.01453957      -0.02158725
C        2.40413696      -0.02872686      -0.02957151
C        3.01658240      -1.26026814       0.67820316
O        3.47203588      -0.82294265       1.99435935
C        3.43277303       0.54311951       1.95799390
C        2.91109860       1.08296587       0.84505005
H        0.65175502      -0.52189771      -0.79430656
H        2.75938807       0.04180253      -1.07237911
H        3.89907382      -1.64052269       0.14140333
H        2.28315370      -2.06420753       0.82336322
H        3.82822213       1.02545056       2.85062414
H        2.77004457       2.14034670       0.64556727
