15
Properties=species:S:1:pos:R:3 -1605.8770741362587=T 11.199838=T 11.56568=T -8.3536=T -6.2879=T -8.701=T 1.0014=T -0.2005=T 1.078=T 8.35197=T -0.73822=T 5.4105382638=T 6.664495472=T 0.44171377=T pbc="F F F"
C        1.14441237       1.18949879      -0.29413469
C       -0.18605819       1.61347629       0.35533604
C       -1.36490178       0.76332857      -0.01736508
C       -1.45111147      -0.56647927      -0.17835144
O       -0.50728012      -1.55989371      -0.04831406
C        0.84200805      -1.33773247       0.10834262
C        1.57251751      -0.21575660       0.01169947
H        1.93849220       1.87883239       0.03402131
H        1.05849023       1.32690409      -1.38574738
H       -0.05486345       1.61403444       1.45093483
H       -0.40263814       2.65711234       0.07768607
H       -2.31408168       1.28011965      -0.17884279
H       -2.40386358      -1.03422868      -0.43040959
H        1.32118235      -2.29514134       0.31765239
H        2.64040570      -0.38047449       0.17584230
