14
Properties=species:S:1:pos:R:3 -1506.5801313342483=T 10.933648=T 11.3668=T -8.1139=T -6.1566=T -7.999=T 0.8574=T -0.0502=T 1.065=T 7.47832=T -0.48353=T 4.83731379=T 6.2634131606=T 0.426919626=T pbc="F F F"
O        2.42739205      -0.59339686      -1.31875579
C        2.29370121      -0.01682676       0.00032920
C        2.86227541       1.36316183       0.00420029
C        2.13542285       2.54178848       0.07995613
N        3.02555727       3.59064372       0.05648540
C        4.31533310       3.10772314      -0.03688452
C        4.24264338       1.72883740      -0.06971158
H        2.15884099      -1.52642056      -1.25242817
H        2.82657067      -0.64404807       0.73918075
H        1.23008046       0.02331937       0.30040494
H        1.06483617       2.70854195       0.14546835
H        2.77291816       4.57054236       0.10372965
H        5.16494281       3.78150491      -0.07080682
H        5.08561548       1.04874907      -0.15100783
