14
Properties=species:S:1:pos:R:3 -1494.352833002104=T 10.927089=T 11.48496=T -9.178=T -7.1826=T -9.719=T 1.2267=T -0.3287=T 0.472=T 9.54859=T 0.20015=T 4.3692170456=T 6.4010996136=T 0.263707435=T pbc="F F F"
C        0.79910113      -0.20154047       0.39970518
C        1.52608643       0.84722552       0.80339809
C        2.68466197       1.41209207       0.05744785
C        2.80111662       2.96812986      -0.02967285
N        4.05990121       2.86503550       0.72335909
C        4.05072624       1.49158406       0.83691663
O        4.81506397       0.69464958       1.33720265
H       -0.02358743      -0.58804727       1.00206658
H        1.00951650      -0.71195739      -0.54316737
H        1.29092717       1.32879004       1.75956758
H        2.82042467       0.91424501      -0.91370454
H        2.00798403       3.51656561       0.49971221
H        2.91604561       3.36078459      -1.05057875
H        4.76330186       3.55561328       0.98164766
