13
Properties=species:S:1:pos:R:3 -1443.7367226726049=T 10.778492=T 11.57497=T -9.5681=T -7.71=T -10.566=T -0.0407=T -1.7927=T -0.545=T 9.51509=T 1.16243=T 3.5529056202=T 11.1563718674=T 0.2160025=T pbc="F F F"
O        2.49352112      -0.92212628       0.61996996
C        2.28066843       0.17127613       0.10073998
C        0.96519901       0.47270152      -0.45943391
C       -0.14117215       0.68906517      -0.91457452
C        3.31416672       1.23245441       0.00860799
C        3.36048474       2.16365465      -1.20119755
C        2.92249395       2.70494210       0.11675316
H       -1.12289586       0.85889028      -1.30974416
H        4.26473969       0.93006053       0.44869240
H        2.59958294       2.01106223      -1.96692785
H        4.35495302       2.41000314      -1.57236154
H        3.60498402       3.33669416       0.68443757
H        1.86246436       2.92190197       0.25073848
