13
Properties=species:S:1:pos:R:3 -1459.7006643958323=T 10.524603=T 11.114=T -8.4561=T -6.4299=T -8.244=T 1.346=T -0.1028=T 0.643=T 7.66722=T -0.14053=T 4.6628530894=T 11.4796405652=T 0.520591863=T pbc="F F F"
C        2.23700223       0.25749585       1.04125653
C        2.10034536      -0.17303810      -0.47933902
C        2.40621351       1.27812722      -0.83271145
C        2.62427263       2.38306255      -1.59752725
O        2.88000825       3.44898175      -0.74756868
C        2.81837504       2.99438393       0.56144700
C        2.52886636       1.66446316       0.53171413
H        3.06216388      -0.22872043       1.58017519
H        1.31463553       0.15182721       1.62929703
H        1.09952111      -0.52600981      -0.76483165
H        2.84701248      -0.90656868      -0.81422656
H        2.64765132       2.62800164      -2.65359676
H        3.00428230       3.75169371       1.31494150
