12
Properties=species:S:1:pos:R:3 -1270.2176014462502=T 9.773574=T 10.36172=T -10.0483=T -7.759=T -9.827=T 1.112=T -0.4214=T 1.177=T 9.31107=T -0.59246=T 4.3676796192=T 10.8389429102=T 0.46278698=T pbc="F F F"
O        0.97857431      -0.01808273       0.27024245
C        2.39089731       0.01276998      -0.03423903
C        2.57289043      -0.75228791      -1.32458350
C        3.29223277      -0.34970012      -2.37338342
C        2.91529406       1.37976062      -0.06213081
C        3.33072252       2.51997750      -0.03463284
H        0.84612014       0.51581362       1.07398506
H        2.94283630      -0.53861747       0.75666151
H        2.06159490      -1.71901988      -1.32513021
H        3.80000049       0.61687636      -2.37781539
H        3.39287106      -0.97954024      -3.25764946
H        3.69660571       3.52653027      -0.01687435
