16
Properties=species:S:1:pos:R:3 -1617.2786201874383=T 11.035201=T 11.82773=T -8.727=T -6.5128=T -8.774=T 0.896=T -0.2925=T 1.409=T 8.26443=T -0.7486=T 5.906879019=T 0.284800669=T pbc="F F F"
O        2.22697360      -0.37987514       1.42998064
C        2.49755362      -0.05147209       0.05252939
C        2.99406838       1.35512970      -0.01894273
C        4.14481761       1.78692890      -0.55499653
C        4.27421648       3.28243958      -0.40190780
N        2.95093993       3.74111047       0.09337352
C        2.23386855       2.52969048       0.56726511
H        1.77024971      -1.23772254       1.44359389
H        1.56822468      -0.14034873      -0.54538042
H        3.24589695      -0.73914766      -0.38168670
H        4.92059798       1.15261295      -0.98697540
H        5.06885621       3.52329152       0.33179469
H        4.54544912       3.80144689      -1.33537830
H        2.43600682       4.11234349      -0.70622274
H        1.17353384       2.55474564       0.26617319
H        2.24638651       2.46987654       1.67078018
