12
Properties=species:S:1:pos:R:3 -1317.997316765369=T 10.312337=T 10.44495=T -10.0074=T -7.9=T -10.89=T -1.0469=T -2.8831=T -1.733=T 10.36629=T 2.01103=T 3.2640678346=T 5.1565405442=T 0.510075175=T pbc="F F F"
N        1.28647631      -0.28695629       0.04417856
C        2.65776171      -0.23357313       0.04481400
O        3.36336187      -1.24060918       0.08625905
C        3.21287362       1.15413951      -0.01044447
C        4.53951780       1.37311843      -0.00595283
C        5.10846789       2.74037926      -0.05885377
O        4.44367008       3.76658005      -0.11208243
H        0.70934220       0.54544844       0.01576491
H        0.84036273      -1.19769776       0.08495926
H        2.53597872       2.01335934      -0.05466546
H        5.22325184       0.52071314       0.03812935
H        6.22447524       2.78811818      -0.04731617
