13
Properties=species:S:1:pos:R:3 -1378.4117122584198=T 9.780306=T 10.51729=T -10.2312=T -8.0384=T -9.976=T 1.1442=T -0.4234=T 0.931=T 9.44593=T -0.35821=T 5.3593940388=T 6.6915492172=T 0.416185508=T pbc="F F F"
C        0.98521798      -0.04267538       0.29104258
C        2.49896550      -0.01992040      -0.02613087
C        2.81577345      -0.78859158      -1.29407504
C        3.41894480      -0.30401023      -2.38199286
C        2.99600823       1.35796999      -0.07320237
N        3.37843253       2.45897794      -0.11468256
H        0.77766172       0.46259060       1.24259465
H        0.64116316      -1.08287446       0.36428920
H        0.42019100       0.45700970      -0.50604552
H        3.02816892      -0.51273362       0.81089645
H        2.48823515      -1.83261279      -1.26577026
H        3.75722806       0.73287161      -2.43733063
H        3.59421950      -0.93777138      -3.25144276
