14
Properties=species:S:1:pos:R:3 -1378.375626281306=T 9.764325=T 10.33783=T -9.0827=T -7.1024=T -10.073=T 0.9457=T -0.0411=T 1.059=T 9.34222=T -0.43012=T 4.8697609262=T 12.8256201826=T 0.322211079=T pbc="F F F"
C        1.45325142       0.15880631       0.57791159
C        2.13180310      -0.14211538      -0.73761789
N        2.44283491      -1.29685442      -1.20839643
N        2.34927159       1.01075423      -1.51984959
C        3.47402805       1.04987640      -2.44104778
C        3.46948635       1.90989128      -1.21264159
H        2.06856567       0.83850146       1.18604535
H        1.27447248      -0.75850247       1.15034631
H        0.49441348       0.66616917       0.40081470
H        2.13907445      -2.03131115      -0.55738646
H        3.26327777       1.49942488      -3.41350378
H        4.12457259       0.17251796      -2.44783846
H        4.14575371       1.61635991      -0.40408481
H        3.25313444       2.97832182      -1.28367117
