19
Properties=species:S:1:pos:R:3 -1925.752849128771=T 13.927398=T 15.30194=T -9.0057=T -6.928=T -9.021=T 1.3088=T 0.1344=T 1.319=T 8.93342=T -0.75972=T 6.2678518594=T 0.612295823=T pbc="F F F"
C        0.20561315       0.81323595       0.31920590
C        1.62201852       0.88145313      -0.16562390
C        2.65364571       1.38409994       0.52670286
C        4.07074146       1.45964553       0.03891977
C        4.59605682       2.91157092      -0.05368640
C        6.01343613       2.98588373      -0.53969973
C        7.04333181       3.48064183       0.15664285
H       -0.47433409       1.35809173      -0.35563765
H        0.10309118       1.24132787       1.32630187
H       -0.15586302      -0.22744472       0.35122057
H        1.81381672       0.47889544      -1.16878838
H        2.46514639       1.79032073       1.52980021
H        4.15213677       0.97288863      -0.94730417
H        4.73270512       0.89959235       0.72282960
H        4.51405242       3.39953576       0.93175073
H        3.93821705       3.47123357      -0.74164522
H        6.19750427       2.58269471      -1.54342932
H        6.90513665       3.88944672       1.16141276
H        8.05506694       3.49811616      -0.25131234
