19
Properties=species:S:1:pos:R:3 -1815.7622965406226=T 12.418242=T 13.16409=T -8.983=T -6.7581=T -9.531=T 0.8864=T -0.1295=T 1.297=T 8.9781=T -0.70749=T 6.6378136848=T 0.440821515=T pbc="F F F"
C        0.97469224       0.02485824       0.05469946
C        2.51157601      -0.07384947       0.03104031
N        2.93517251      -0.93266137       1.15340758
C        2.99229314      -0.77198733      -1.27008286
N        2.37981046      -2.09519235      -1.41243319
C        3.08697774       1.33291744       0.04145410
C        3.87289995       1.86996897       0.98051341
H        0.61497645       0.65519292      -0.77065265
H        0.63588159       0.47809161       0.99819010
H        0.53382583      -0.97307506      -0.05637757
H        2.52455663      -0.59403880       2.02739483
H        3.95168498      -0.87264306       1.26713032
H        4.10338103      -0.78265813      -1.24039474
H        2.70362859      -0.15047834      -2.13379085
H        2.59784973      -2.63310753      -0.56768520
H        2.79507403      -2.58938997      -2.20414528
H        2.80387894       1.94669863      -0.82260306
H        4.18202778       1.31028277       1.86692566
H        4.23122239       2.89681082       0.89860963
