13
Properties=species:S:1:pos:R:3 -1341.4908194797777=T 10.049885=T 10.16654=T -8.8334=T -6.7945=T -8.562=T 0.8129=T -0.0963=T 0.636=T 8.12204=T 0.01303=T 4.807867115=T 6.5619342528=T 0.342665274=T pbc="F F F"
C        2.91120161      -0.94248473       0.81268470
O        2.86100738      -0.17411317      -0.41288101
N        3.37861224       1.10138231      -0.20698708
C        2.64788942       2.20612214       0.18433349
C        3.56815155       3.23317867       0.17919203
N        4.81519632       2.78228036      -0.20606053
C        4.67235608       1.48648792      -0.43789582
H        2.48191877      -1.91559273       0.54715063
H        2.30821573      -0.46565453       1.59947912
H        3.94943564      -1.06660280       1.15410849
H        1.58727973       2.14249130       0.39774998
H        3.39680707       4.27736612       0.42563665
H        5.43104846       0.78699913      -0.77563064
