20
Properties=species:S:1:pos:R:3 -1937.682549034469=T 12.191596=T 13.52344=T -9.1399=T -7.0424=T -10.687=T 0.8806=T -0.0186=T 2.792=T 10.07704=T -2.43209=T 8.4381028034=T 11.3279560928=T 0.187931591=T pbc="F F F"
C        0.80803303      -0.07242929      -0.02210225
C        2.30248706      -0.21695711      -0.33766373
C        2.53926366      -0.61704374      -1.79958816
C        3.09670720       1.03550826       0.04652563
C        2.79084696       2.31541177      -0.70710925
C        3.58868696       1.15165485       1.44832175
N        4.51802098       0.74391933       0.36396458
H        0.64466021       0.21817921       1.02656234
H        0.28266804      -1.02318847      -0.19477685
H        0.32929038       0.68539567      -0.66183498
H        2.71095000      -1.02406046       0.29461441
H        2.10820772       0.11777382      -2.49746688
H        2.07024353      -1.58797496      -2.01688607
H        3.61517989      -0.70479065      -2.00849626
H        3.38162987       3.15275761      -0.30712451
H        1.72895013       2.59203341      -0.62424459
H        3.02835487       2.21564856      -1.77721578
H        3.36317435       0.36234082       2.17119381
H        3.68759055       2.15248533       1.87815464
H        5.09452460       1.55089604       0.10010214
