17
Properties=species:S:1:pos:R:3 -1721.9683859739082=T 10.895801=T 12.2668=T -9.2834=T -7.1327=T -11.255=T 0.9612=T 0.075=T 2.919=T 10.6813=T -2.55817=T 9.1232494394=T 11.7391928576=T 0.168840971=T pbc="F F F"
C        0.62288030       1.04856363      -0.33633663
C       -0.55274996       0.20892845       0.10192946
C        0.80845225      -0.42326921      -0.03470917
C        1.62173794      -0.85152104       1.15479781
C        1.50554372      -0.12370834       2.51172838
C        1.29601552      -1.53315320       3.09091011
O        1.15722978      -2.10879451       1.76171108
H        0.67982797       1.37302994      -1.37536285
H        1.02444668       1.76486007       0.38274481
H       -1.30564339      -0.05632505      -0.63995665
H       -0.95064767       0.37050357       1.10439171
H        0.94348122      -1.07338451      -0.90293469
H        2.67829201      -0.96851010       0.84445682
H        0.61920252       0.51755482       2.59961359
H        2.39178528       0.42843017       2.84640264
H        2.17782599      -1.93967627       3.61737140
H        0.39664984      -1.69954844       3.70378220
