19
Properties=species:S:1:pos:R:3 -1833.2156795246563=T 12.284036=T 13.4666=T -8.5274=T -6.6239=T -9.518=T 0.7253=T -0.2133=T 1.178=T 8.69627=T -0.54276=T 5.0380719212=T 11.3044483472=T 0.197151008=T pbc="F F F"
C        1.35778866      -0.29243833      -0.52760860
C        2.86110567      -0.25410413      -0.28035949
N        3.37052901       1.10493369      -0.38561298
C        4.70063756       1.42346702      -0.16833413
N        5.68241475       0.59282243      -0.03877324
C        4.98135355       2.91159083      -0.08013085
C        4.72820031       3.47535659       1.32632240
H        0.98591847      -1.32341123      -0.46177774
H        1.11113995       0.09617656      -1.52603322
H        0.81498733       0.30434803       0.22137008
H        3.37423591      -0.88301617      -1.02819030
H        3.09377566      -0.68356247       0.71342754
H        2.69268142       1.85071777      -0.25373661
H        5.35753130      -0.38261742      -0.07186737
H        4.37095499       3.45210902      -0.82238815
H        6.03544072       3.05130325      -0.35229464
H        3.67826436       3.35726279       1.63492880
H        4.96659571       4.54761360       1.36498080
H        5.35676467       2.95711817       2.06359772
