15
Properties=species:S:1:pos:R:3 -1588.9117325668904=T 14.711575=T 13.86657=T -7.9612=T -6.0558=T -8.289=T 0.7333=T -0.7754=T 0.191=T 7.8383=T 0.36545=T 4.8709511918=T 0.913257745=T pbc="F F F"
C        0.86819765       0.77016643       0.11532315
C        2.17251488       0.58235246      -0.09990347
O        3.10435927       1.52823234       0.25986188
C        4.42293848       1.24943716       0.01553797
C        5.39357618       2.12774169       0.33678521
C        6.79341120       1.86632612       0.09079821
C        7.79821999       2.71488731       0.38874883
H        0.16376115      -0.00122742      -0.18524504
H        0.49077460       1.67768863       0.58441796
H        2.58272626      -0.31764454      -0.56837106
H        4.62581054       0.27944901      -0.45059571
H        5.10807331       3.07633017       0.79983862
H        7.03628119       0.90338714      -0.37296451
H        7.60601641       3.68550975       0.85110202
H        8.83600889       2.45935375       0.17728594
