20
Properties=species:S:1:pos:R:3 -1938.6487265398525=T 12.214649=T 13.4412=T -8.5798=T -6.506=T -10.092=T 0.8995=T -0.017=T 2.955=T 9.36783=T -2.60625=T 8.1149828888=T 9.985584468=T 0.135555915=T pbc="F F F"
C        1.76262682      -0.59749048      -1.21680266
C        2.36894172      -0.01689791       0.06335712
C        3.20113206       1.25436628      -0.13652565
C        4.44851297       1.01056209      -0.99066284
C        2.42242075       2.53872717      -0.56454242
C        3.15827312       3.26107212       0.58670042
N        3.50962219       1.93674751       1.16976848
H        1.11575541      -1.45625831      -0.98754861
H        2.53226630      -0.94681011      -1.92056213
H        1.14484748       0.14847949      -1.74102761
H        3.00265901      -0.77419194       0.55822656
H        1.57056880       0.22968270       0.78097082
H        5.03086357       1.93632726      -1.11208675
H        4.19075461       0.64661128      -1.99664314
H        5.09689170       0.25566432      -0.51714057
H        1.34172609       2.44962919      -0.38792781
H        2.59768724       2.90823382      -1.58285024
H        4.02068858       3.85175958       0.22836151
H        2.55305769       3.89622190       1.25206122
H        4.48726388       1.84863403       1.46149430
