16
Properties=species:S:1:pos:R:3 -1679.7664153508092=T 11.449974=T 12.96486=T -10.1684=T -8.0769=T -10.817=T 0.7195=T -0.2112=T 1.426=T 10.40155=T -1.02477=T 5.2643711684=T 10.5204848692=T 0.447051092=T pbc="F F F"
C        1.00177916       0.01198171      -0.03054084
C        2.51069221      -0.05943318       0.00178335
C        3.33375246      -0.78403379      -1.03320228
C        2.73764397      -1.51612087      -2.21277800
C        3.33333635       0.74661120      -1.00668782
C        4.50009616       1.46192655      -0.58077793
N        5.45536995       2.03357334      -0.22313125
H        0.64473254       0.89260510       0.52237132
H        0.56069549      -0.88036712       0.43823163
H        0.60904180       0.08092431      -1.05377547
H        2.94080107      -0.07188537       1.00613644
H        4.25386319      -1.22719693      -0.64473387
H        1.84242263      -1.01590041      -2.60539081
H        2.45191975      -2.54020062      -1.92974047
H        3.46629109      -1.58570384      -3.03300093
H        2.76763218       1.23955990      -1.80143305
