18
Properties=species:S:1:pos:R:3 -1747.9266419098597=T 12.252973=T 13.44232=T -9.452=T -7.1363=T -9.364=T 1.1726=T -0.1714=T 1.185=T 8.82439=T -0.5642=T 6.361597674=T 0.411635993=T pbc="F F F"
N        0.82778372      -0.02413214       0.20116432
C        2.28273556      -0.11895470       0.01091159
C        2.89098405       1.27912194      -0.17614306
C        4.38846564       1.25711895      -0.23911414
C        5.13325689       1.66408478      -1.27813236
C        6.62989180       1.61215246      -1.31295078
O        7.12309281       0.77639704      -2.37827682
H        0.44016695      -0.95251037       0.38377762
H        0.38610625       0.30005246      -0.66385090
H        2.59127621      -0.75679252      -0.84228011
H        2.70871566      -0.57701234       0.91905917
H        2.55523113       1.90220538       0.67069550
H        2.48593301       1.73989432      -1.09306059
H        4.90407561       0.87258645       0.65179974
H        4.64417507       2.04501425      -2.18284206
H        7.02299700       1.28208867      -0.33300547
H        7.05134878       2.60757893      -1.52364463
H        6.69101386      -0.09091357      -2.27682701
