9
Properties=species:S:1:pos:R:3 -1080.4538662640455=T 11.520464=T 11.46194=T -10.1399=T -8.3574=T -9.838=T -0.9367=T -2.5761=T -1.518=T 9.19335=T 1.85875=T 4.3617902842=T 9.9846421744=T 0.310729767=T pbc="F F F"
N        0.83621177       0.11971727      -0.00762770
C        2.00682606       0.11726182      -0.00346867
C        3.41801741       0.09009500       0.00156533
C        4.30769835       1.15412782       0.00384597
C        5.64164007       0.68125835       0.00892715
N        5.81933947      -0.63786534       0.01078472
S        4.33486603      -1.39328927       0.00602371
H        4.00777538       2.19951147       0.00190291
H        6.52628546       1.31997289       0.01157657
