12
Properties=species:S:1:pos:R:3 -1358.347855609102=T 11.33853=T 10.69732=T -8.4728=T -6.5281=T -8.347=T -0.4077=T -2.0002=T -0.988=T 7.85001=T 1.58416=T 3.2580545136=T 5.799569136=T 0.387654129=T pbc="F F F"
O        0.90072654      -0.17476840       0.00596333
C        2.24726082      -0.06124177      -0.00074502
C        2.87717883       1.14190454      -0.00120633
C        2.36374388       2.49888646       0.00455059
C        3.47408401       3.29527673       0.00046329
N        4.68707929       2.56080009      -0.00741184
C        4.33397795       1.29915800      -0.00855958
H        0.64993394      -1.11540906       0.00498192
H        2.81976002      -0.99404940      -0.00587954
H        1.31976405       2.79713580       0.01069547
H        3.51476630       4.38334101       0.00272513
H        5.06502438       0.48822597      -0.01422742
