18
Properties=species:S:1:pos:R:3 -1784.7001442755848=T 12.500978=T 13.78503=T -9.2271=T -6.9482=T -9.777=T 0.922=T -0.0117=T 2.314=T 9.38608=T -1.90461=T 4.3510902924=T 10.4603392606=T 0.356163095=T pbc="F F F"
C        0.98130448      -0.06672339       0.24070744
C        2.45395659      -0.04914034      -0.17527843
C        2.68880229      -0.82986896      -1.47760012
N        2.39022074      -2.26037709      -1.29513461
C        2.96074696       1.40804628      -0.30641335
C        4.39977098       1.53390317      -0.50611493
C        5.60130124       1.63065336      -0.65616669
H        0.83692367       0.38559147       1.23297747
H        0.61001667      -1.09936688       0.26659811
H        0.36621751       0.49639668      -0.48031631
H        3.05334049      -0.53310404       0.61772185
H        3.71845156      -0.62939493      -1.83036701
H        2.00218667      -0.43981334      -2.24955014
H        3.13288552      -2.69565562      -0.74071886
H        2.40049727      -2.73495629      -2.20010984
H        2.67936609       1.96642232       0.60225455
H        2.43175713       1.90145045      -1.14192817
H        6.65962414       1.72297715      -0.78952094
