19
Properties=species:S:1:pos:R:3 -1877.8403369565738=T 12.463284=T 13.69347=T -9.3969=T -7.2422=T -9.099=T 0.9007=T 0.0175=T 1.297=T 8.56037=T -0.66152=T 6.2374380936=T 0.408394753=T pbc="F F F"
C        0.74621063       0.71651357      -0.29413696
C        2.18557929       0.75678841       0.12168311
C        3.21408134       1.08955653      -0.67459494
C        4.65751067       1.15939959      -0.25455348
C        5.57441534       0.41603291      -1.23673486
C        5.08822336       2.63539906      -0.12927536
O        4.33899145       3.35329482       0.84835638
H        0.33050705      -0.29768501      -0.18123245
H        0.61819539       1.02472802      -1.34115093
H        0.12927012       1.37594950       0.33695605
H        2.40202187       0.47017779       1.15872249
H        3.00464717       1.37150601      -1.71677008
H        4.75445065       0.70842742       0.74843075
H        5.50604603       0.84876244      -2.24725140
H        5.29738783      -0.64474417      -1.30767260
H        6.62525841       0.47409180      -0.91633154
H        5.01572234       3.12131484      -1.12420214
H        6.13992947       2.68988544       0.19158618
H        3.39917158       3.14374104       0.68185178
