16
Properties=species:S:1:pos:R:3 -1640.7257093937449=T 12.377357=T 13.32423=T -9.2792=T -7.0239=T -9.226=T 1.0075=T -0.1447=T 1.27=T 8.60053=T -0.64245=T 4.3480774326=T 10.6238395988=T 0.459397203=T pbc="F F F"
N        0.97479888      -0.23474150      -0.10443566
C        2.42234946      -0.01829921      -0.01541194
C        2.80254607       1.44236383       0.04674855
C        1.90993673       2.43276350       0.16611486
C        4.29741709       1.72549195      -0.01472242
C        4.93440976       1.30324107      -1.26105881
C        5.46355629       0.95326603      -2.29627785
H        0.77229969      -1.23102151      -0.00521615
H        0.64543167       0.03408095      -1.03559941
H        3.00327387      -0.47978227      -0.83997490
H        2.78166375      -0.50564115       0.90991711
H        0.84547682       2.21172143       0.24871479
H        2.22530928       3.47692098       0.20129661
H        4.80124727       1.21160149       0.82517676
H        4.46906707       2.80301751       0.13429270
H        5.93068629       0.64928689      -3.21050424
