14
Properties=species:S:1:pos:R:3 -1358.314291616896=T 10.26483=T 10.94414=T -9.1595=T -6.95=T -9.712=T 0.807=T -0.2302=T 2.302=T 9.37828=T -1.89951=T 4.3808965268=T 10.8238910098=T 0.606917239=T pbc="F F F"
N        0.93600886      -0.00256530       0.03876352
C        2.40268886      -0.01526299      -0.03558953
C        2.93317940       1.44199216       0.07141796
N        2.46367565       2.16414259       1.26616932
C        4.39232728       1.45028973      -0.01064533
C        5.60410505       1.40540497      -0.06521379
H        0.58104326      -0.92705770       0.28533255
H        0.53381622       0.23097716      -0.87237371
H        2.81165958      -0.48006391      -0.95265473
H        2.79009559      -0.58367601       0.82390515
H        2.54610210       1.99179306      -0.80954498
H        2.97653809       1.81676243       2.08237314
H        1.48366726       1.88511902       1.39733217
H        6.67375279       1.38879479      -0.11453174
