16
Properties=species:S:1:pos:R:3 -1677.126120626699=T 11.794477=T 12.96567=T -10.2493=T -8.1248=T -9.965=T 1.1571=T -0.5779=T 0.682=T 9.41163=T -0.20105=T 5.3300217554=T 6.6105243662=T 0.472208941=T pbc="F F F"
C        2.82470767      -0.84561016      -1.16517855
C        2.43419217      -0.00984033       0.05243196
C        3.00413298       1.43503134       0.02274578
C        2.52942105       2.25505375       1.20459527
C        1.74440548       3.32999888       1.10000086
C        4.47269486       1.40887745      -0.01445858
N        5.63888773       1.37092663      -0.02939989
H        2.39437604      -1.85381968      -1.09451542
H        3.91593187      -0.95010759      -1.24643724
H        2.45802004      -0.39003386      -2.09732110
H        2.77386496      -0.50008970       0.97850106
H        1.33993929       0.08366364       0.12332623
H        2.66820838       1.92644790      -0.90783730
H        2.85630766       1.90135939       2.18740025
H        1.41404724       3.70780981       0.12923582
H        1.40690257       3.87109251       1.98455084
