15
Properties=species:S:1:pos:R:3 -1574.4117059747618=T 12.045475=T 12.06506=T -8.1363=T -6.2497=T -8.737=T 0.7865=T -0.2102=T 0.778=T 8.05364=T -0.2158=T 5.0580212686=T 5.4343187786=T 0.455813106=T pbc="F F F"
C        1.06041978      -0.10830723       0.20588213
C        2.37839878       0.00368090      -0.02984982
C        3.21457691       1.27119999      -0.07582825
C        4.53368956       0.84249658      -0.74588391
C        4.55457627      -0.67357180      -0.63778673
N        5.58274302      -1.39955389      -0.88435722
N        3.26644237      -1.05190376      -0.25960749
H        0.55629924      -1.07408191       0.23751110
H        0.46183859       0.78287464       0.38268519
H        3.39523987       1.61547221       0.95438446
H        2.69350239       2.07744567      -0.60652868
H        4.55195860       1.10510528      -1.81455620
H        5.43223180       1.27160092      -0.28786453
H        5.37799229      -2.40204995      -0.77310013
H        2.97853052      -2.02546765      -0.21437994
