17
Properties=species:S:1:pos:R:3 -1650.7795574874158=T 11.385332=T 12.6654=T -9.0195=T -6.9124=T -10.544=T 0.9521=T 0.0186=T 3.285=T 9.89982=T -3.25968=T 8.720617303=T 11.3849152612=T 0.159187706=T pbc="F F F"
C        0.85131435      -0.13992082       0.03191102
C        0.53540886      -0.13437675       1.50992071
C       -0.69066779       0.51515104       2.04086779
N       -0.62525910      -0.95994901       1.91084594
N        1.62057279       1.04827455      -0.34776572
C        3.07938474       0.90367933      -0.25056732
C        2.40199812       0.91481925      -1.58028094
H        1.38710446      -1.08068942      -0.22624576
H       -0.09476811      -0.13955889      -0.53219346
H        1.40983128      -0.13332427       2.17035418
H       -1.37840129       1.00232255       1.34534028
H       -0.64623366       0.96136685       3.03731756
H       -0.44873614      -1.37683264       2.83002057
H        3.47462016      -0.05943360       0.09235907
H        3.62173025       1.78367451       0.10225891
H        2.44091348       1.80457345      -2.21267531
H        2.35044760      -0.03855611      -2.11783751
