13
Properties=species:S:1:pos:R:3 -1355.6225451752048=T 14.281283=T 14.00965=T -8.0214=T -6.2668=T -8.807=T 0.6965=T -0.8187=T -0.202=T 7.82026=T 0.9696=T 3.283893196=T 10.8650295646=T 1.026935344=T pbc="F F F"
C        1.05662471      -0.08248850       0.27245025
C        2.35855442       0.00444633      -0.04417142
C        3.21317488       1.26487043      -0.12788158
N        4.50928515       0.72420013      -0.52056068
C        4.51381806      -0.63293160      -0.65728655
S        5.78898153      -1.61724143      -1.08255493
N        3.22402441      -1.04130986      -0.36812793
H        0.53740212      -1.03896405       0.30444043
H        0.48765183       0.81454893       0.50687253
H        3.26068374       1.78189191       0.84473864
H        2.81690293       1.96960074      -0.87712711
H        5.35289245       1.26238288      -0.67378703
H        2.97475378      -2.02364591      -0.40918460
