12
Properties=species:S:1:pos:R:3 -1295.6530424511566=T 13.745544=T 14.31833=T -8.5554=T -6.72=T -8.634=T 0.6681=T -0.7635=T -0.187=T 8.08604=T 0.84738=T 3.8440495454=T 9.2235541134=T 0.349521812=T pbc="F F F"
C        0.84130431       0.04737071      -0.00332306
C        2.33469718       0.00917158      -0.00435643
C        3.23943080       1.04865510      -0.00327694
Cl       2.75871472       2.73199073       0.00071420
C        4.61184577       0.66164106      -0.00569480
C        4.75217397      -0.70088787      -0.00860227
S        3.21364141      -1.50035867      -0.00852879
H        0.50364121       1.09107181       0.01051362
H        0.42201969      -0.45820148       0.87879827
H        0.42140931      -0.43451854      -0.89843529
H        5.43720031       1.37005231      -0.00504736
H        5.66540133      -1.28811675      -0.01069117
