13
Properties=species:S:1:pos:R:3 -1342.1567377167116=T 12.484407=T 12.67345=T -7.8258=T -6.0377=T -8.574=T 0.6866=T -0.9078=T -0.337=T 8.04852=T 0.88729=T 4.1741994662=T 10.5683558638=T 0.328732424=T pbc="F F F"
C        2.95044374      -1.17766716       0.47362922
N        2.35619426       0.03104385      -0.08499495
C        3.06181384       1.23253879      -0.01951875
C        2.52344242       2.50302039      -0.18134463
S        3.78763052       3.66888611      -0.10109919
N        5.01255195       2.55678106       0.14620954
C        4.47987205       1.33922806       0.16585799
H        2.22019931      -1.99261136       0.39966480
H        3.25712003      -1.07350466       1.53142130
H        3.83118546      -1.47480721      -0.11450956
H        1.36734898       0.13207769       0.12689766
H        1.48665117       2.78374975      -0.34739699
H        5.15056627       0.49271468       0.32086357
