15
Properties=species:S:1:pos:R:3 -1535.5356120641682=T 10.870836=T 11.46384=T -8.0574=T -6.0929=T -8.92=T 0.9664=T -0.024=T 0.726=T 8.47934=T -0.09729=T 5.1369755534=T 12.3240596168=T 0.220771066=T pbc="F F F"
C        0.62462511      -0.02979499       0.01775806
C        2.10886582       0.30779341      -0.02452629
C        1.09085493       1.39031983      -0.20561380
C        0.82864157       2.51334398       0.79611617
C        0.04056376       3.45777732      -0.07961211
N        0.08538911       3.16410062      -1.33727631
N        0.91420430       2.05416309      -1.50744037
H        0.17418167      -0.27695287       0.98123251
H        0.20638646      -0.57294280      -0.83245347
H        2.67197349      -0.00340758      -0.90586579
H        2.67514941       0.28212339       0.90781447
H        1.77021879       2.98492528       1.13410572
H        0.28248718       2.18053574       1.69094250
H       -0.48808172       4.35040287       0.25240827
H        0.54964012       1.46233270      -2.25610955
