15
Properties=species:S:1:pos:R:3 -1540.6983745234243=T 9.7195=T 10.8798=T -9.4156=T -7.2147=T -10.639=T 0.9409=T 0.0479=T 2.858=T 10.33174=T -2.50494=T 8.1865724052=T 12.7840972712=T 0.127147911=T pbc="F F F"
C        1.37352273      -0.16628212      -0.30203245
C        2.82959780       0.01414659       0.01803196
C        3.73151813      -1.08991722       0.53767638
C        3.99789014      -0.43941676      -0.80751582
O        4.95420920       0.61508322      -0.80151286
C        4.18960358       1.76378889      -0.42783290
O        3.19470565       1.32068675       0.49213566
H        1.04011218       0.57295351      -1.04458374
H        0.76367777      -0.04542477       0.60533867
H        1.18841285      -1.17198100      -0.70327339
H        3.34316391      -2.11050157       0.53824799
H        4.41392685      -0.83141216       1.34726249
H        3.90969369      -0.98806479      -1.74781083
H        4.84786517       2.48682052       0.07282929
H        3.71191035       2.20857090      -1.32588046
