18
Properties=species:S:1:pos:R:3 -1773.9475719593474=T 11.456514=T 12.61413=T -8.8317=T -6.899=T -10.022=T 0.7384=T -0.1858=T 0.631=T 9.36339=T 0.08782=T 4.3071992484=T 12.3908260778=T 0.262316319=T pbc="F F F"
C        1.17417891       0.24741665       0.39785455
C        2.40719485       0.16023675      -0.49750999
C        3.66341621      -0.23065864       0.28852932
O        3.61554015      -0.44967757       1.50222184
N        4.84542026      -0.33109316      -0.42079364
C        5.00073034      -0.04615167      -1.83742947
C        6.07308951      -0.65900376       0.29088221
H        0.29346916       0.53161058      -0.19461017
H        1.31738535       0.99049076       1.19278800
H        0.97361768      -0.71460309       0.88637184
H        2.58106057       1.12595621      -1.00047486
H        2.24036646      -0.57643248      -1.30129464
H        4.03096029       0.06952090      -2.32833556
H        5.53607945      -0.87376664      -2.33135855
H        5.58504976       0.87781372      -1.99731892
H        5.82241891      -0.83216046       1.34234336
H        6.79872311       0.16791099       0.21669002
H        6.53372904      -1.56520910      -0.13447534
