17
Properties=species:S:1:pos:R:3 -1673.8317479109778=T 13.398096=T 13.90377=T -8.7283=T -6.8205=T -9.273=T 0.7105=T -0.8815=T 0.405=T 8.86286=T 0.32209=T 4.5138095188=T 5.5676037286=T 0.702691623=T pbc="F F F"
C        2.03178313      -1.99528113       0.41126518
C        3.11629055      -0.99702733      -0.02630358
C        2.97186528       0.32611466       0.65145128
N        2.78054398       1.40527751      -0.02212551
N        2.66130678       2.53645819       0.82221710
C        2.43655074       3.60877550       0.14747571
C        2.27399137       4.92464437       0.82549148
H        2.19337962      -2.97469674      -0.05938120
H        1.03287351      -1.63827303       0.12399735
H        2.03725568      -2.14077606       1.50158151
H        3.09318939      -0.84203052      -1.11433735
H        4.10823603      -1.41052764       0.22897150
H        3.01634372       0.36358291       1.75378170
H        2.36127262       3.56056631      -0.95159882
H        2.37366494       4.81931247       1.91226600
H        1.28959437       5.35953231       0.59001942
H        3.02549827       5.64144823       0.45781826
