16
Properties=species:S:1:pos:R:3 -1673.8994577244566=T 12.038003=T 12.44302=T -9.0803=T -6.8788=T -8.921=T 1.0381=T -0.2636=T 1.345=T 8.57781=T -0.6617=T 6.1314424622=T 0.255464409=T pbc="F F F"
N        0.96579002      -0.14799017      -0.48369624
C        2.35746348       0.02118902       0.00949901
C        3.19213405      -1.18849152      -0.35148052
C        4.08342746      -0.91924679      -1.31503435
C        4.02556145       0.52092730      -1.75679137
C        3.06046879       1.14084321      -0.75903881
C        2.88675931       2.44560183      -0.52753139
H        0.43161290       0.69622275      -0.25878247
H        0.51812204      -0.91474641       0.02752408
H        2.40064462       0.22644387       1.09946913
H        3.03738811      -2.16588958       0.10848463
H        4.76821904      -1.64497127      -1.75656844
H        5.00960118       1.01743481      -1.74046715
H        3.65148016       0.60155738      -2.79360409
H        3.41900314       3.20756707      -1.10077067
H        2.20392426       2.80142850       0.24791865
