18
Properties=species:S:1:pos:R:3 -1734.1375832944045=T 11.381611=T 12.8877=T -9.0971=T -6.9734=T -10.637=T 0.9103=T -0.0096=T 3.033=T 10.02869=T -2.71415=T 8.525835297=T 11.2042056662=T 0.145906539=T pbc="F F F"
C        1.88453680       2.20119780      -2.00383650
O        3.20898549       2.17181384      -1.49240161
C        3.28831160       1.46268542      -0.26028813
C        4.71873341       1.43232733       0.22734187
N        5.83687109       1.26107740      -0.72384250
C        5.65867511       2.55785346      -0.01287444
C        6.72810995       2.93467686       0.98127546
H        1.91666948       2.74925652      -2.95375500
H        1.19517757       2.71900221      -1.31046920
H        1.49802098       1.18080100      -2.18656973
H        2.91821783       0.42560638      -0.40203794
H        2.64217228       1.94301856       0.50369037
H        4.83699544       0.85565932       1.15225551
H        5.45321021       1.36662744      -1.67103354
H        5.25418936       3.37836958      -0.61415183
H        7.08446183       2.04524160       1.51917312
H        6.34498620       3.65835903       1.71690749
H        7.59208537       3.39083623       0.47481660
