15
Properties=species:S:1:pos:R:3 -1491.2209310128676=T 11.053969=T 12.39658=T -9.1961=T -6.9555=T -9.155=T 0.852=T -0.1103=T 2.486=T 8.74231=T -2.02885=T 4.1576969296=T 10.244777201=T 0.83204589=T pbc="F F F"
C        0.97203537      -0.00995454      -0.00399465
C        2.42743094       0.00156938      -0.01344028
C        3.64313468       0.01763190       0.00052215
C        5.10885847       0.02239825      -0.02876417
C        5.63106369      -0.77783478      -1.24085306
N        5.60259834       1.41460985       0.05447174
H        0.56980713       1.01405017       0.01652216
H        0.58532044      -0.53710285       0.88112973
H        0.56797485      -0.51088128      -0.89653564
H        5.46218230      -0.48401319       0.88895090
H        5.29313872      -0.31454312      -2.17933675
H        5.26663955      -1.81524817      -1.21868320
H        6.73117422      -0.79713857      -1.23470386
H        5.24131396       1.94175884      -0.74638194
H        6.62250733       1.40847810      -0.03887316
