14
Properties=species:S:1:pos:R:3 -1470.087874419226=T 11.307075=T 12.37212=T -9.3397=T -7.2088=T -9.055=T 1.2079=T 0.0438=T 1.224=T 8.59028=T -0.62124=T 4.355566187=T 10.720945434=T 0.836291205=T pbc="F F F"
C        0.77354023       0.02364846       0.15525349
C        2.26914959       0.03004310       0.23552419
C        3.06244030       0.98535468      -0.26361824
C        4.57046329       0.97875074      -0.15857358
C        5.23486256       1.06282856      -1.45826190
C        5.76910551       1.14228151      -2.54546360
H        0.40978363      -0.87249017      -0.37268277
H        0.39265460       0.90982919      -0.37098319
H        0.32154621      -0.00050343       1.15991388
H        2.73363978      -0.82372654       0.74510363
H        2.62296899       1.84060217      -0.78854917
H        4.90368801       0.06906285       0.36780083
H        4.90441386       1.83357829       0.45775509
H        6.24498344       1.20414057      -3.50256868
