12
Properties=species:S:1:pos:R:3 -1291.4007375816166=T 11.625746=T 12.03306=T -8.2743=T -6.3749=T -8.29=T 0.67=T -0.9178=T -0.253=T 7.80483=T 0.9512=T 3.8799186952=T 10.8783952554=T 0.260143737=T pbc="F F F"
C        0.83231638       0.01706474      -0.00614633
C        2.32622635      -0.01221587      -0.00290715
C        3.20895355       1.04824358      -0.00361609
O        2.80715088       2.35222152      -0.00711734
N        4.54775409       0.76171222      -0.00048869
C        4.73050482      -0.53737350       0.00237889
S        3.27162928      -1.48035429       0.00171522
H        0.49514411       1.06132806       0.00225026
H        0.40669491      -0.48208703       0.87721374
H        0.41078360      -0.46628115      -0.90030396
H        3.62543781       2.88391088      -0.00585065
H        5.70607422      -1.01874916       0.00529210
