15
Properties=species:S:1:pos:R:3 -1555.9406214869784=T 10.394852=T 11.44763=T -7.6371=T -5.5979=T -8.473=T 0.8869=T -0.0171=T 1.189=T 8.05293=T -0.60536=T 5.326810518=T 11.3064197246=T 0.317798781=T pbc="F F F"
C        1.01308633       0.23051044       0.21290049
C        2.43593255       0.00653093      -0.13321496
C        3.18273294      -1.09775730      -0.30416379
C        2.89401116      -2.54766799      -0.21257936
O        4.47101404      -0.73996562      -0.74426113
C        4.53717285       0.66013526      -0.45787062
O        3.19262560       1.14973412      -0.45109966
H        0.49996725      -0.72601459       0.37072784
H        0.49868748       0.76824801      -0.59966222
H        0.90889116       0.83699435       1.12581996
H        3.54784889      -3.04379161       0.52115064
H        3.05806431      -3.03797062      -1.18564217
H        1.85137360      -2.71432949       0.08459606
H        5.11607064       1.17284676      -1.23707061
H        4.98221120       0.80458736       0.55055954
