14
Properties=species:S:1:pos:R:3 -1554.2951404096202=T 10.782795=T 11.6116=T -9.8762=T -7.7147=T -9.454=T 1.3037=T -0.3666=T 0.745=T 8.9454=T -0.20893=T 5.3296250002=T 6.1061617168=T 0.244417948=T pbc="F F F"
N        0.97423884       0.03907284      -0.10585919
C        2.14046993       0.02109943      -0.05962831
C        3.60647550      -0.00164893       0.00480433
C        4.17193276      -1.30034904       0.66630096
C        4.54823360      -0.89930528       2.11225469
C        4.64095903       0.60326953       2.04675265
C        4.13440646       1.10209025       0.91324612
H        3.96953253       0.10756580      -1.03092642
H        5.07489854      -1.59472691       0.11424819
H        3.46046867      -2.13320796       0.61598551
H        5.48759230      -1.37012217       2.43969375
H        3.77660289      -1.20167617       2.84155294
H        5.04483048       1.20794263       2.86003952
H        4.04197847       2.15654597       0.65533528
