13
Properties=species:S:1:pos:R:3 -1331.162320033052=T 11.206204=T 11.51386=T -9.8344=T -7.9443=T -10.807=T -0.2592=T -2.1377=T -1.139=T 10.38391=T 1.52059=T 4.7151007898=T 12.6391452386=T 0.597373304=T pbc="F F F"
C        0.36950657      -0.98751018      -0.12740668
C        1.79090310      -0.54923238       0.14867612
O        1.85325468       0.88563094      -0.10232840
N        3.12979172       1.33944006       0.13376786
C        3.21628394       2.61458054      -0.08136621
C        4.46817736       3.25844781       0.11568177
N        5.46252255       3.85861240       0.25557442
H        0.28230905      -2.06758298       0.05118704
H        0.08794845      -0.78821312      -1.17006272
H       -0.34034351      -0.47204341       0.53331264
H        2.51452150      -1.04609445      -0.51458969
H        2.08505553      -0.72870957       1.19350814
H        2.36301907       3.21987433      -0.40836430
