17
Properties=species:S:1:pos:R:3 -1678.1895200274407=T 13.256904=T 13.53445=T -8.4351=T -6.5766=T -9.036=T 0.801=T -0.7572=T 0.499=T 8.57432=T 0.2636=T 4.3583682706=T 5.424573479=T 0.643794302=T pbc="F F F"
C        0.92727784       0.96898306       0.47726279
C        2.40854449       0.83807493       0.38629370
N        3.15019255       1.84432295       0.08203227
N        4.51428200       1.49323307       0.03420464
C        5.32402332       2.50431048      -0.01179867
C        4.93390463       3.95590485       0.01903456
C        6.78926057       2.18564980      -0.08710972
H        0.57844359       0.71029524       1.48982118
H        0.43639931       0.26164288      -0.21015634
H        0.60900946       1.99029226       0.23610846
H        2.86979736      -0.14346880       0.58696530
H        3.85351379       4.07536652      -0.10802883
H        5.47467717       4.51183732      -0.76119533
H        5.22840146       4.40002811       0.98348594
H        6.94640552       1.10104970      -0.08320761
H        7.32845800       2.63482237       0.76224214
H        7.22955895       2.61536526      -1.00119449
