16
Properties=species:S:1:pos:R:3 -1641.7715316086478=T 12.625578=T 14.36284=T -9.0329=T -6.8845=T -8.975=T 0.8745=T -0.1279=T 2.425=T 8.54815=T -1.92442=T 4.106974257=T 9.087057926=T 0.375380518=T pbc="F F F"
N        1.21614812      -0.22036506       0.55664556
C        2.37530088       0.02755895      -0.32727471
C        2.93291081       1.36155520      -0.13241370
C        3.38492101       2.48396756       0.00742239
C        3.92914071       3.79891677       0.18884279
C        4.23180507       4.67729425      -1.02035022
C        3.08203522       5.02868129      -0.12104431
H        0.80188288      -1.12431764       0.31385142
H        0.49949976       0.48687503       0.37137152
H        2.15476108      -0.09664034      -1.40824448
H        3.14777402      -0.72228937      -0.08336225
H        4.61785160       3.90290898       1.03111482
H        4.00495394       4.25544654      -1.99894739
H        5.13506316       5.28587881      -0.97513830
H        3.18555066       5.88105337       0.55052832
H        2.07227109       4.84599565      -0.48701146
