20
Properties=species:S:1:pos:R:3 -1935.4005638976644=T 12.283301=T 13.41978=T -8.419=T -6.3423=T -9.812=T 0.9216=T 0.0147=T 3.049=T 9.05922=T -2.73488=T 7.7402847982=T 10.8701253892=T 0.128132911=T pbc="F F F"
C        1.63930112      -0.53988620      -1.05287470
N        2.21797927       0.04907574       0.15523420
C        3.09390226       1.20592390      -0.06973770
C        4.31337664       0.92701407      -0.95938203
C        2.33956226       2.50619191      -0.49603238
C        3.12989932       3.28798285       0.58774025
C        3.49612027       1.93303289       1.24915787
H        0.95769076      -1.35245183      -0.76368011
H        2.36750810      -0.94898394      -1.78217258
H        1.03798590       0.22146668      -1.57353756
H        2.74642959      -0.66771126       0.66236201
H        4.93710771       1.82647715      -1.07410878
H        4.01413788       0.60486699      -1.96790041
H        4.94311027       0.13790396      -0.51792581
H        1.27277403       2.42774500      -0.24360785
H        2.44560609       2.83226539      -1.54075484
H        4.00880530       3.80219667       0.17393128
H        2.56457493       4.00436486       1.19781875
H        4.52834246       1.79485026       1.60287529
H        2.79324584       1.66793488       2.05143511
