17
Properties=species:S:1:pos:R:3 -1695.410324247627=T 13.153058=T 13.56864=T -7.8921=T -6.084=T -8.449=T 1.1844=T -0.1324=T 0.787=T 7.88224=T -0.19118=T 4.9824022072=T 5.1851813102=T 0.385725492=T pbc="F F F"
C        1.06812764      -0.06748583       0.85124684
C        2.45545008       0.34696446       0.46843909
C        2.81721673       1.61886092       0.22105203
N        4.09580474       2.03574642      -0.13854338
C        4.50384152       3.34538116      -0.40624244
C        5.96212711       3.44079977      -0.78394113
N        3.79141541       4.41778230      -0.36383459
H        0.64442149      -0.78274141       0.12729882
H        0.39032453       0.79639450       0.90380554
H        1.05081243      -0.56784224       1.83339231
H        3.20843275      -0.44570923       0.38878586
H        2.08294647       2.42420464       0.29502885
H        4.80536905       1.31253234      -0.22454345
H        6.60639765       3.05752351       0.02199963
H        6.20927528       4.49013812      -0.96958871
H        6.17396769       2.85662809      -1.69259225
H        2.81737943       4.22751250      -0.09570302
