12
Properties=species:S:1:pos:R:3 -1317.9018041870727=T 11.301762=T 10.7099=T -9.4914=T -7.4839=T -9.855=T -0.3841=T -2.1346=T -1.206=T 9.52923=T 1.65117=T 3.4416405838=T 4.7472751568=T 0.686605647=T pbc="F F F"
O        2.35774700       3.68692033       0.98933195
C        2.72308506       3.72996167      -0.17093955
N        3.88637578       3.13275985      -0.65215722
C        4.76037916       2.41996590       0.14236855
C        5.89820844       1.82790363      -0.29117736
C        6.74317777       1.09938353       0.64724275
O        7.78816501       0.53279130       0.34621398
H        2.16796622       4.25203616      -0.97999508
H        4.09277577       3.23421874      -1.64509780
H        4.44802631       2.37057677       1.18834753
H        6.22248696       1.86947430      -1.33436952
H        6.36497651       1.08781781       1.70295177
