13
Properties=species:S:1:pos:R:3 -1440.609711640334=T 11.555619=T 11.27447=T -8.4592=T -6.5073=T -8.382=T 0.7229=T -0.9176=T 0.099=T 7.84111=T 0.2995=T 4.5072258622=T 5.904585278=T 0.409010353=T pbc="F F F"
N        2.76203039      -1.12114341       0.14772000
C        2.20155101       0.02312147       0.06176059
N        2.95001359       1.20389481       0.03546175
C        2.40353269       2.48395059      -0.05719923
C        3.44012977       3.38595375      -0.05560303
C        4.65999383       2.63840347       0.04086998
C        4.33572855       1.30299620       0.09551451
H        2.05172198      -1.86017904       0.15277848
H        1.12047819       0.22461790       0.00044454
H        1.32879632       2.62197038      -0.11485361
H        3.34111186       4.46551027      -0.11662729
H        5.66717583       3.04403550       0.06696756
H        4.93547599       0.40385813       0.17055575
