17
Properties=species:S:1:pos:R:3 -1718.6515120566205=T 10.968783=T 12.21524=T -9.3107=T -7.1542=T -10.509=T 0.946=T 0.0932=T 2.765=T 10.13016=T -2.58011=T 8.3387528216=T 11.1152581098=T 0.316312788=T pbc="F F F"
C       -1.72953517       0.66443488       0.32447061
C       -1.69376571      -0.74939507      -0.36020132
C       -0.19194935      -0.78323659       0.05335465
C        1.17760267      -1.08015605      -0.51272621
O        1.98108937       0.01061916       0.06534370
C        1.12140094       1.07755712       0.60583240
C       -0.21219664       0.74172284      -0.02105523
H       -2.38856424       1.43230559      -0.10082397
H       -1.91339088       0.57411292       1.40510785
H       -1.83126898      -0.66367953      -1.44808549
H       -2.34890539      -1.53620272       0.03545404
H       -0.17647914      -1.05716466       1.12466765
H        1.63751637      -2.02320417      -0.18248390
H        1.20978905      -1.02091548      -1.61526054
H        1.10564169       1.01869427       1.70873665
H        1.56840277       2.03361153       0.29587498
H       -0.15643736       1.01663596      -1.09077589
