17
Properties=species:S:1:pos:R:3 -1735.9640076249987=T 13.003376=T 13.30032=T -8.7348=T -6.7125=T -8.475=T 0.4655=T -1.0253=T 0.233=T 7.96=T 0.33973=T 5.0744246164=T 0.743795936=T pbc="F F F"
C        1.51274515       2.87458935      -0.83718491
C        2.96964349       2.58035254      -0.66646444
C        3.46641817       1.42468486      -0.17655452
C        4.88194763       1.09166033      -0.00294983
C        5.25690666      -0.15154888       0.36531556
C        5.91334591       2.17643801      -0.22165444
O        5.86669315       3.20791099       0.77915058
H        1.21953968       3.77727684      -0.27714454
H        0.88690614       2.03929117      -0.49460265
H        1.27113916       3.07567996      -1.89355939
H        3.65832813       3.36954799      -0.99129555
H        2.75725806       0.64357913       0.12333418
H        4.52130277      -0.94093204       0.53433760
H        6.30755685      -0.41124327       0.50172645
H        5.79334700       2.61285624      -1.23265285
H        6.92343423       1.74874996      -0.16390503
H        4.92752783       3.41100682       0.93914376
