17
Properties=species:S:1:pos:R:3 -1744.7144578617122=T 10.762501=T 11.86563=T -9.4566=T -7.2466=T -10.64=T 0.8884=T -0.0822=T 3.088=T 10.30931=T -2.80068=T 8.5868736048=T 12.7400078496=T 0.174069606=T pbc="F F F"
O        0.75569688      -0.07065167      -0.19200693
C        2.12339712       0.02228027       0.14286860
C        3.08719320      -0.85452643      -0.60670806
C        2.59877305      -1.47944580      -1.91659949
C        2.78793776      -0.37903083      -2.98610320
C        2.66279786       0.96288886      -2.22753403
C        3.12407757       0.66392492      -0.79979090
H        0.36090087       0.81011427      -0.06735395
H        2.31280273       0.14761083       1.21549863
H        3.85760811      -1.36847035      -0.02977584
H        3.17214517      -2.38661072      -2.15329513
H        1.54012407      -1.76795195      -1.83333293
H        3.80241418      -0.45729900      -3.40997575
H        2.07550677      -0.46647578      -3.82038917
H        3.27871082       1.75261094      -2.68024946
H        1.61876526       1.31731328      -2.24028932
H        3.91855857       1.26957916      -0.35964306
