14
Properties=species:S:1:pos:R:3 -1479.49634948692=T 9.927164=T 10.44016=T -8.7233=T -6.5341=T -8.284=T 1.7099=T 0.0825=T 1.395=T 7.84998=T -0.7416=T 5.3010586258=T 11.6875526886=T 0.47896365=T pbc="F F F"
C       -1.23026725       0.00926955      -0.51306856
C       -0.42894664      -0.54986247       0.71474801
C       -0.56956116       0.89514263       1.31017203
C       -0.36686153       1.28096935      -0.19729636
C        1.04414520       0.72176857      -0.43688829
C        1.00335855      -0.48143960       0.16252658
H       -1.07182829      -0.47987916      -1.48429837
H       -2.30197117       0.14995663      -0.30368161
H       -0.74082671      -1.44671067       1.26358171
H       -1.58263264       1.11445884       1.68138911
H        0.19914067       1.22432971       2.02321522
H       -0.61467101       2.27450051      -0.59014256
H        1.85634426       1.21216828      -0.96903847
H        1.77311772      -1.24451217       0.25482156
