18
Properties=species:S:1:pos:R:3 -1744.6295887811261=T 11.299983=T 12.67115=T -8.6932=T -6.5298=T -10.058=T 0.8702=T -0.1042=T 3.036=T 9.63224=T -2.7088=T 8.0199476198=T 10.894959785=T 0.153676354=T pbc="F F F"
C        2.95830679      -1.19968205      -0.65328571
C        2.39504890       0.06094656       0.01190543
C        3.40361289       1.18680716       0.07763388
C        3.55298619       2.23746437      -1.04194518
N        2.73510321       2.32536068      -2.23274161
C        2.97796466       2.61133211       0.29577678
O        3.71981919       3.37652354       1.22237959
H        2.21427055      -2.00893827      -0.67383967
H        3.84167379      -1.57025291      -0.11138151
H        3.26867004      -0.99925262      -1.69002297
H        2.05160759      -0.17931533       1.03244498
H        1.49790912       0.39313899      -0.53777944
H        4.35137468       0.93361171       0.56374196
H        4.58127705       2.57244489      -1.20387075
H        1.74167683       2.26834978      -2.00102042
H        2.93401009       1.54872132      -2.86928042
H        1.89256589       2.79011983       0.31994706
H        3.73594254       4.29525025       0.89854798
