20
Properties=species:S:1:pos:R:3 -1925.6849864571047=T 12.517357=T 13.92941=T -7.8625=T -5.8953=T -9.263=T 0.9339=T 0.0521=T 3.326=T 8.54061=T -3.03301=T 7.2439316444=T 12.40851888=T 0.159358363=T pbc="F F F"
C        1.06620556      -0.04333973       0.05676664
C        2.56448733      -0.14422806      -0.12800186
C        3.15869026      -0.63666044      -1.43831867
C        3.28259842       0.82730009      -1.01868932
N        4.52679914       1.49680292      -0.68941151
C        5.40631474       0.79748913       0.23757867
C        5.24050300       1.87144998      -1.90847824
H        0.80676184       0.67796495       0.84660485
H        0.63277604      -1.01741497       0.33112626
H        0.57597232       0.28725335      -0.87106380
H        3.10530287      -0.47948909       0.76025316
H        2.48203569      -0.88158599      -2.25926592
H        4.04325520      -1.27175072      -1.37339946
H        2.62082249       1.50640250      -1.56648803
H        4.89344703       0.61645844       1.19119330
H        6.27479821       1.43915097       0.44558143
H        5.79508148      -0.17202056      -0.14792684
H        4.57335712       2.45110947      -2.56277746
H        5.61022149       0.99518238      -2.48484379
H        6.10230976       2.50469536      -1.65117940
