13
Properties=species:S:1:pos:R:3 -1274.9703781077399=T 8.065151=T 9.05353=T -9.8204=T -7.7067=T -11.87=T 0.9915=T 0.1094=T 2.855=T 11.60394=T -2.63005=T 9.2190534216=T 10.9281756344=T 0.342700521=T pbc="F F F"
C        0.99701658      -0.01211775      -0.06872487
C        2.49532346       0.11322248       0.00450954
O        3.25555604      -0.52040651      -1.05261129
C        3.28051808       0.92338825      -0.94478274
C        4.60000687       1.55421910      -0.58818771
H        0.51704153       0.70913901       0.60990038
H        0.67767835      -1.02093896       0.23090990
H        0.63896528       0.17310599      -1.09037630
H        2.93443980      -0.03782614       1.00072915
H        2.71753301       1.42471551      -1.74464833
H        5.08639511       1.00674614       0.23034283
H        4.45486082       2.59966873      -0.27658479
H        5.27717508       1.55174416      -1.45476577
