16
Properties=species:S:1:pos:R:3 -1589.8138335199783=T 9.641359=T 10.48715=T -9.3458=T -7.2008=T -11.37=T 0.9867=T 0.0685=T 3.034=T 10.71062=T -2.85091=T 9.2517237326=T 11.1781190118=T 0.162959626=T pbc="F F F"
C        0.74579721       1.28918765      -0.20600758
C       -0.72525241       1.24399736       0.22902527
C       -1.37840654      -0.05630884      -0.23885326
O       -0.67493730      -1.21112313       0.23185642
C        0.67423756      -1.22425411      -0.24732613
C        1.46141959      -0.00000913       0.21959711
H        0.79771762       1.38884792      -1.30537396
H        1.25029652       2.17271903       0.21505749
H       -1.28427164       2.10233241      -0.17757548
H       -0.79287148       1.29902333       1.32845707
H       -2.40400386      -0.15372532       0.14528781
H       -1.42311780      -0.07827309      -1.34909300
H        1.11679032      -2.15691446       0.13107718
H        0.67120603      -1.27032085      -1.35770732
H        1.55061873      -0.03389510       1.31834608
H        2.48211746      -0.04064368      -0.19400770
