13
Properties=species:S:1:pos:R:3 -1413.2972020071763=T 11.904275=T 11.20682=T -8.3275=T -6.4395=T -8.132=T 0.3758=T -1.2757=T 0.062=T 7.58181=T 0.51319=T 4.3857195822=T 4.7819664396=T 0.325804337=T pbc="F F F"
C        2.83883975      -1.05368697       0.39405474
N        2.26912204       0.08808993       0.24664005
N        3.05060402       1.21397987       0.14870069
C        2.44562612       2.45383828      -0.00599847
C        3.43857662       3.40300223      -0.07715315
C        4.69047843       2.71945127       0.03773557
C        4.43252740       1.37203891       0.17610284
H        2.17303072      -1.91461867       0.46618811
H        3.92146980      -1.22043791       0.45157129
H        1.36413257       2.51238878      -0.04707722
H        3.28967421       4.47130841      -0.19827745
H        5.67924343       3.16918926       0.02001887
H        5.10834488       0.53367659       0.28815413
