19
Properties=species:S:1:pos:R:3 -1867.6763881104305=T 11.597208=T 13.13384=T -9.9185=T -7.7644=T -11.904=T 0.9014=T -0.0087=T 2.709=T 11.02889=T -2.43439=T 9.2388539858=T 11.2903387404=T 0.230663979=T pbc="F F F"
C        0.78695893      -0.20318101      -0.08394665
C        2.31826379      -0.16001057      -0.14528802
C        2.84407107      -1.01736080      -1.30389238
C        2.81150136       1.29733466      -0.23016069
C        4.30897833       1.44589876      -0.10708667
C        5.19362629       1.65459301      -1.26710942
O        4.85893056       2.75125237      -0.39459569
H        0.40189705       0.37392256       0.76978482
H        0.42267934      -1.23646966       0.01405263
H        0.34646381       0.22024000      -1.00099597
H        2.70551901      -0.58863262       0.79837901
H        2.48783326      -0.62549617      -2.27069220
H        2.49132241      -2.05547103      -1.21562900
H        3.94259798      -1.03799573      -1.33464071
H        2.34400801       1.88255293       0.58019868
H        2.48088759       1.75365644      -1.17912388
H        4.75511457       0.97506169       0.78069199
H        4.75118100       1.70659801      -2.26833883
H        6.23839562       1.32701716      -1.22630702
