16
Properties=species:S:1:pos:R:3 -1595.4927315052835=T 9.985029=T 11.00998=T -9.571=T -7.4777=T -10.916=T 0.5638=T -0.5658=T 0.216=T 10.15263=T 0.41963=T 4.2846089992=T 12.774525552=T 0.142989233=T pbc="F F F"
C        2.63796590       0.06720292       1.80796019
C        3.66164994       0.63631498       0.82662086
C        3.07729215       0.95202399      -0.55577348
N        2.10337974       2.06681176      -0.59521111
C        4.19959740       1.23091162      -1.58922523
O        3.92470262       2.27178499      -2.40127894
O        5.20814899       0.56021013      -1.67621462
H        3.10043151      -0.13374659       2.78417440
H        2.22036199      -0.88133430       1.43677073
H        1.79856770       0.75840487       1.97983333
H        4.49129371      -0.06996895       0.68006249
H        4.11373887       1.55832845       1.23405563
H        2.56559325       0.05078202      -0.93562752
H        2.26638005       2.71492775       0.18009573
H        1.14207596       1.73494787      -0.51486019
H        3.03904022       2.59549849      -2.05492227
