10
Properties=species:S:1:pos:R:3 -1049.8122744393843=T 9.728475=T 10.32935=T -10.3496=T -8.4168=T -10.502=T -1.3329=T -3.1384=T -1.834=T 10.4267=T 2.45927=T 4.0009786256=T 9.167958791=T 0.410161192=T pbc="F F F"
O        0.83068938      -0.00527153       0.16295808
S        2.29123028       0.01827291       0.33884453
O        2.89075401      -0.00527429       1.68222084
C        3.03405566       1.29767085      -0.66839746
C        3.74973093       0.72052906      -1.63893137
N        3.78318544      -0.72244875      -1.68433321
C        3.09088839      -1.23295533      -0.74554077
H        2.87030829       2.34732800      -0.44681728
H        4.31708233       1.24111300      -2.40873941
H        2.95635528      -2.30054392      -0.56328394
