15
Properties=species:S:1:pos:R:3 -1451.0912596904564=T 10.09618=T 10.69062=T -9.4713=T -7.2299=T -9.623=T 0.8669=T -0.2799=T 1.281=T 9.1099=T -0.72641=T 6.6974013564=T 0.425697516=T pbc="F F F"
N        1.43431122      -0.35998451      -0.78420649
C        2.88862933      -0.23077872      -0.59292297
C        3.19967486       1.22762607      -0.18973819
O        2.30691170       1.61850588       0.85301060
C        4.61523251       1.36956409       0.28412246
C        5.58254101       1.99657892      -0.39274215
H        1.13467527      -1.33117554      -0.69579483
H        1.15958316      -0.04435827      -1.71718681
H        3.49522279      -0.50783030      -1.47349950
H        3.17817211      -0.89033375       0.24005711
H        3.05308724       1.87311042      -1.08334630
H        1.48337651       1.11915990       0.64177120
H        4.82747969       0.89834689       1.25034007
H        5.38055377       2.49077204      -1.34670235
H        6.60604883       2.04235689      -0.01832185
