12
Properties=species:S:1:pos:R:3 -1335.5351844777852=T 12.029328=T 11.90281=T -8.88=T -6.9613=T -9.224=T 0.0135=T -1.6745=T -0.538=T 8.65236=T 1.16355=T 3.8875934286=T 6.1635548362=T 0.315624088=T pbc="F F F"
C        0.96670713      -0.05489666       0.00772310
C        2.30831072      -0.05843569       0.00776573
N        3.09738601       1.09074101       0.00579386
C        4.48426430       1.05831593       0.00570689
O        5.14592238       0.02343222       0.00754047
C        5.08979386       2.37945826       0.00352746
C        5.65386947       3.45491273       0.00156892
H        0.42383268      -0.99709415       0.00924556
H        0.38301885       0.86718357       0.00611637
H        2.90045586      -0.97387023       0.00923878
H        2.64722346       2.00430222       0.00426320
H        6.16346528       4.39761079      -0.00017033
