17
Properties=species:S:1:pos:R:3 -1642.745176121184=T 10.560431=T 11.53907=T -9.1512=T -6.9792=T -10.347=T 0.9028=T -0.0491=T 3.072=T 9.71593=T -2.72216=T 8.2999823994=T 10.9533199952=T 0.220968745=T pbc="F F F"
C        2.80017998      -1.37457383      -0.36908140
C        2.24595195      -0.07893787       0.23028017
C        3.26174899       1.05879011       0.28839826
N        4.45229019       0.88277789       1.10508403
C        3.46911592       1.88964837      -0.95840321
C        2.74227622       2.47660260       0.23577575
H        2.03183905      -2.16023314      -0.39611149
H        3.64369789      -1.76543964       0.22069228
H        3.15587732      -1.21459456      -1.39830180
H        1.87248337      -0.27164267       1.25244694
H        1.37296085       0.25159757      -0.35673072
H        4.18297189       0.68407600       2.07386959
H        4.98821655       0.07365346       0.77883679
H        2.88293223       1.63953655      -1.84400387
H        4.48006659       2.24798965      -1.15101668
H        3.27950133       3.21676587       0.82842430
H        1.66432967       2.62634365       0.15971108
