13
Properties=species:S:1:pos:R:3 -1374.9714220960543=T 10.860708=T 10.91692=T -9.3242=T -7.3991=T -10.18=T -0.6514=T -2.4004=T -1.332=T 9.66245=T 1.91426=T 3.1505710502=T 5.2833658236=T 0.306659988=T pbc="F F F"
N        1.10696101      -0.20807452       0.26016314
C        2.45829769      -0.31850364       0.08648979
N        3.17780506      -1.35927232      -0.18320438
C        3.16464129       1.03148544       0.22397011
O        2.50828041       2.01822271       0.55888010
C        4.61897837       1.05550389      -0.05147251
C        5.31838958       2.19596094       0.05489598
H        0.78056583       0.69012019       0.61412842
H        0.54021610      -1.03224347       0.41788172
H        2.60383208      -2.21256958      -0.24049115
H        5.07143217       0.10663359      -0.33935526
H        4.82032675       3.12259375       0.34973549
H        6.38927365       2.22844304      -0.14725145
