12
Properties=species:S:1:pos:R:3 -1289.5210931218462=T 11.929198=T 12.14937=T -8.1886=T -6.5384=T -9.881=T 0.4879=T -1.1033=T -0.569=T 9.41353=T 1.12047=T 4.1707526554=T 10.5687774162=T 0.388256088=T pbc="F F F"
C        0.88375714       0.05751971      -0.00798589
C        2.37871226       0.02986624       0.00004323
C        3.25650480       1.06490654       0.00447754
C        4.67062581       0.68362616       0.01142167
O        5.68189225       1.38372188       0.01689399
N        4.71445786      -0.72108243       0.01104547
S        3.19724686      -1.52569207       0.00395361
H        0.53027180       1.09577407      -0.00253145
H        0.46881094      -0.45135183       0.87412793
H        0.47892320      -0.43855540      -0.90204386
H        2.96565099       2.11280207       0.00326982
H        5.58808609      -1.24128494       0.01655794
