17
Properties=species:S:1:pos:R:3 -1674.2597585935232=T 11.882318=T 12.86548=T -9.5315=T -7.5656=T -10.829=T 1.6662=T -0.0907=T 0.912=T 10.15283=T -0.35964=T 4.9528811406=T 11.3162518144=T 0.329367678=T pbc="F F F"
C        0.86914744       0.08257917      -0.23777423
C        2.37649935       0.07869205      -0.25282642
C        3.21932948      -0.77807481      -1.12627271
C        2.69499789      -1.77325027      -2.12980413
N        3.04233450       0.67053360      -1.45438278
C        4.17558136       1.48553342      -1.16088393
N        4.53010524       2.51048509      -1.82645249
H        0.49221599       1.07427724       0.05097109
H        0.49224864      -0.64899592       0.49279629
H        0.45357489      -0.16146969      -1.22269615
H        2.83988023       0.34562501       0.70606977
H        4.19873250      -1.03558249      -0.70211304
H        1.72972951      -1.45976803      -2.54489843
H        2.57051272      -2.76048845      -1.65987877
H        3.40173856      -1.88256784      -2.96494644
H        4.78302961       1.19030398      -0.28270149
H        3.86462209       2.64810795      -2.60518613
