15
Properties=species:S:1:pos:R:3 -1602.6877677371033=T 10.630474=T 11.61757=T -8.0256=T -5.944=T -8.47=T 0.9443=T 0.0732=T 1.322=T 8.01668=T -0.71186=T 5.5208858038=T 11.2972199634=T 0.385173457=T pbc="F F F"
C        1.04168445      -0.07519692      -0.04866213
C        2.51790206       0.13798303       0.02404320
C        3.22209495       1.21287832      -0.38132316
O        4.58254379       1.15020420      -0.13987915
C        4.82441139      -0.14556161       0.41205920
C        4.53260135      -1.35146028      -0.43421398
C        3.48916421      -0.85928975       0.56731560
H        0.78750427      -0.93784680      -0.68659080
H        0.52886099       0.80848536      -0.45244134
H        0.61951659      -0.28213837       0.94875027
H        2.89226803       2.12668905      -0.87121890
H        5.63276893      -0.14212395       1.14218056
H        5.09215199      -2.25099874      -0.17637237
H        4.32088630      -1.20976963      -1.49484729
H        3.23036070      -1.47301391       1.43301030
