15
Properties=species:S:1:pos:R:3 -1454.0831935937229=T 11.792111=T 12.80435=T -9.8819=T -7.8814=T -10.169=T 0.8681=T -0.8125=T -0.213=T 9.67718=T 0.55205=T 5.1800606884=T 6.7715697816=T 0.300539555=T pbc="F F F"
C        3.66545153      -0.95014640      -1.63606456
S        2.98448425      -0.40362045      -0.06169242
O        1.51674896      -0.41797697      -0.17005793
O        3.67748613      -1.13825632       1.01031737
C        3.49848696       1.35308165       0.04194140
C        4.97754723       1.52228213       0.13137153
C        5.70987891       2.18538910      -0.77203057
H        4.75050852      -0.80241806      -1.62632811
H        3.18115689      -0.39331772      -2.44570954
H        3.41967259      -2.01654499      -1.70113282
H        2.98071346       1.67700330       0.95878630
H        3.04859273       1.86386930      -0.82036435
H        5.45750546       1.05893612       0.99786518
H        5.25313488       2.65895159      -1.64474005
H        6.78983148       2.28730771      -0.66088145
