12
Properties=species:S:1:pos:R:3 -1314.1353167683599=T 9.55691=T 9.82531=T -7.6693=T -5.7669=T -8.166=T 0.8904=T -0.2016=T 0.707=T 7.6602=T -0.19295=T 4.6975691694=T 5.9892553174=T 0.372218707=T pbc="F F F"
O        0.91472303      -0.08100539      -0.00894909
C        2.29210753       0.01919459      -0.00157537
C        3.12771525       1.12577908       0.00515978
N        4.42320550       0.64302615       0.01088995
C        4.42696017      -0.73907781       0.00793753
C        3.10364529      -1.14818944       0.00014033
O        2.65759749      -2.44712487      -0.00501128
H        0.52915975       0.81038164      -0.00897032
H        2.91017534       2.18791123       0.00631603
H        5.25268979       1.22082793       0.01643264
H        5.34315550      -1.31668788       0.01144131
H        1.68371534      -2.41373524      -0.01001149
