15
Properties=species:S:1:pos:R:3 -1518.9659227797574=T 10.244596=T 11.0473=T -8.9286=T -7.0076=T -10.219=T 0.7697=T -0.2253=T 0.709=T 9.66112=T -0.08303=T 4.7072772732=T 12.378638254=T 0.115734891=T pbc="F F F"
N        3.21314987      -1.05673066      -0.42900763
C        2.56337476       0.05353533       0.11630347
O        1.38618849       0.03510245       0.47617235
N        3.34824853       1.18873485       0.18986413
C        2.78162213       2.54942087       0.28352089
C        4.03242157       3.08198380      -0.47031915
C        4.44278112       1.60600933      -0.71953117
H        4.21994737      -1.11922215      -0.29753099
H        2.71752053      -1.92345020      -0.23747675
H        2.63900870       2.90346823       1.31417336
H        1.83072742       2.64513812      -0.26304249
H        3.82807207       3.67309958      -1.36979172
H        4.73433405       3.62691742       0.17162266
H        4.29528798       1.25846034      -1.75556905
H        5.45078541       1.31930269      -0.37965791
