14
Properties=species:S:1:pos:R:3 -1442.2000929962298=T 9.735826=T 10.60186=T -9.305=T -7.3227=T -10.253=T 0.9352=T -0.1834=T 0.464=T 9.77668=T 0.24377=T 4.4099092508=T 5.9261464434=T 0.138096165=T pbc="F F F"
C        1.03247592       0.02393748       0.45263476
N        2.40133431       0.03522819      -0.00821135
C        3.37744899       1.12851871      -0.17497656
C        4.36990861       0.06909279      -0.72119597
O        4.79463934       0.32432779      -2.04835356
C        3.19903135      -0.94191306      -0.55733080
O        3.01757663      -2.11771930      -0.82406997
H        0.66285275      -1.00613942       0.37347398
H        0.39858640       0.67886696      -0.16607028
H        0.96268581       0.34957512       1.50209958
H        3.66380912       1.62357894       0.76544637
H        3.08831590       1.87042517      -0.93471343
H        5.21730320      -0.13488000      -0.04264778
H        5.02525167      -0.53459938      -2.44753500
