17
Properties=species:S:1:pos:R:3 -1593.39050069336=T 11.187612=T 11.73895=T -8.7754=T -6.8571=T -9.858=T 0.8634=T -0.1501=T 0.874=T 9.12804=T -0.33662=T 4.9199008646=T 6.230234507=T 0.164708492=T pbc="F F F"
C        4.25933425      -1.14691639       0.80680313
C        3.21483029      -0.18472195       0.24270812
N        3.71232849       1.16726524      -0.04333003
O        4.19228769       1.80167926       1.14462095
C        3.28072962       2.85175058       1.50553965
C        4.57246845       1.35067358      -1.13304076
N        5.54907993       2.16651833      -1.26724785
H        3.80109314      -2.12433446       1.01352820
H        4.67782592      -0.75795664       1.74400753
H        5.08457834      -1.29676620       0.09645971
H        2.36405312      -0.08043932       0.93297140
H        2.80491707      -0.55877084      -0.70854594
H        3.70113415       3.29541153       2.41752371
H        2.27550986       2.45414637       1.71870220
H        3.21593136       3.61208254       0.71249109
H        4.26669750       0.71852516      -1.98015519
H        5.71205083       2.65291321      -0.37211592
