14
Properties=species:S:1:pos:R:3 -1486.6591249309608=T 11.300729=T 12.17002=T -10.0063=T -7.8574=T -9.656=T 0.1899=T -1.4813=T -0.088=T 9.162=T 0.60782=T 5.021061042=T 6.4781321154=T 0.305150975=T pbc="F F F"
O        2.90719295      -1.18566103      -0.68365428
C        2.29901546      -0.21617031       0.17711683
C        2.91344327       1.14811754      -0.14780032
C        4.37663251       1.21377378       0.14912938
C        4.94765973       2.14890937       0.93349139
C        6.34428203       2.19086666       1.20476591
N        7.48681302       2.25131101       1.45150268
H        2.59523141      -2.06716127      -0.42043178
H        2.47378356      -0.46220611       1.24031703
H        1.20764929      -0.16553634       0.00940489
H        2.36835881       1.93094570       0.40122206
H        2.75719432       1.32925371      -1.22599133
H        5.00273099       0.44099018      -0.30472835
H        4.34777265       2.93428710       1.40302590
