5
Properties=species:S:1:pos:R:3 -619.7770148982823=T 6.147521=T 5.96463=T -11.3629=T -8.9771=T -10.69=T 0.2766=T -1.8218=T -0.11=T 10.37225=T 0.34727=T 3.7894833068=T 16.6767617272=T 1.690819441=T pbc="F F F"
C        0.99694423       0.00000000       0.00000000
C        2.21277709       0.00000000       0.00000000
C        3.57887763       0.00000000       0.00000000
N        4.75218280       0.00000000       0.00000000
H       -0.07432175       0.00000000       0.00000000
