20
Properties=species:S:1:pos:R:3 -1885.3219771530264=T 12.082105=T 13.62966=T -8.6539=T -6.5315=T -10.115=T 0.9604=T 0.021=T 3.19=T 9.38034=T -2.94789=T 8.139618907=T 12.0544024654=T 0.208490974=T pbc="F F F"
C        1.24064777       0.74771618       0.24751885
C        2.64954724       0.46819905      -0.26292726
N        3.49768535       1.65725178      -0.16117493
C        4.87116122       1.42345762      -0.61498618
C        5.74528904       2.66706819      -0.45747359
C        5.25558446       3.85830399      -1.26940518
O        6.20276648       4.92571793      -1.09441849
H        0.60380814      -0.14189233       0.14276236
H        0.78185470       1.57514667      -0.31183290
H        1.25051835       1.02345316       1.31386878
H        2.60785686       0.18165261      -1.32802458
H        3.07828533      -0.40712473       0.27630528
H        3.52235439       1.96243161       0.81784233
H        4.82358895       1.13878339      -1.68174014
H        5.35625300       0.57066276      -0.08931000
H        6.77354760       2.42587717      -0.77055861
H        5.80461042       2.95876370       0.60554108
H        4.24893549       4.15782274      -0.93260972
H        5.18017609       3.57157876      -2.33679742
H        5.85903910       5.70818975      -1.55672968
