16
Properties=species:S:1:pos:R:3 -1578.7651757413207=T 9.843337=T 10.90816=T -9.7607=T -7.5416=T -11.45=T 0.9726=T 0.0189=T 2.816=T 11.11462=T -2.5888=T 9.2800917294=T 9.880878291=T 0.097541469=T pbc="F F F"
C        0.94185001      -0.01543718      -0.00868651
C        2.45828687       0.03478650       0.05845377
C        3.17843602       1.07108827       0.96954800
C        4.26619155       0.00329644       1.26558137
C        3.23444004      -1.06766204       0.83169792
O        3.64753236      -2.25748486       0.17848620
H        0.60062094      -0.90079037      -0.56600322
H        0.52770486       0.87433232      -0.50679100
H        0.50728196      -0.06562081       1.00201298
H        2.88622083       0.10267246      -0.95899938
H        2.57812888       1.29517141       1.86428833
H        3.49891201       2.01658549       0.51349847
H        5.08950967       0.06580846       0.53572138
H        4.69074924      -0.06147446       2.27618132
H        2.64228185      -1.40484128       1.69843906
H        4.20068291      -1.99640035      -0.58014871
