18
Properties=species:S:1:pos:R:3 -1800.5472331218136=T 11.444912=T 12.5449=T -8.4688=T -6.3643=T -10.054=T 0.9065=T 0.0213=T 2.956=T 9.37958=T -2.69395=T 8.1616512192=T 10.9662393364=T 0.111619972=T pbc="F F F"
C        1.02243324       0.00780789       0.07491912
C        2.53975836       0.00682376      -0.05363770
C        3.19078526       1.05613393      -1.02172513
C        2.87859603       0.05646878      -2.17964089
C        3.21301143      -0.97458304      -1.07339043
N        4.67258430      -0.74155038      -0.90498865
C        4.68346670       0.76601941      -0.80452980
H        0.68441905       0.86264351       0.68061851
H        0.67476896      -0.90768315       0.57780637
H        0.50674557       0.06753055      -0.89329176
H        2.99330253      -0.02483541       0.95399190
H        2.87604719       2.10771384      -1.04689119
H        3.53594975       0.06479121      -3.05983829
H        1.82636350       0.05408178      -2.48142655
H        2.94980426      -2.03793363      -1.14798720
H        4.97053086      -1.13721481      -0.00857031
H        5.32269931       1.20270699      -1.58799422
H        5.04133367       1.11854878       0.17595620
