17
Properties=species:S:1:pos:R:3 -1730.2348917606007=T 12.492874=T 13.39833=T -9.5357=T -7.3001=T -9.439=T 1.2926=T -0.3482=T 1.072=T 9.22261=T -0.50144=T 6.568716287=T 0.532535427=T pbc="F F F"
O        1.44787685      -0.12564977       0.40517737
C        2.74011671       0.29492146      -0.08705621
C        2.80698893      -0.13247506      -1.56305494
C        2.71224562      -1.61897807      -1.74937258
C        3.63716056      -2.36749051      -2.36128833
C        2.90416728       1.77947421       0.08035592
C        3.86012339       2.35073518       0.82228602
H        1.38055480       0.17940429       1.32677561
H        3.54390398      -0.22609529       0.46891392
H        3.74483813       0.24758702      -1.99627213
H        1.97103819       0.36545452      -2.08627173
H        1.81639450      -2.09405956      -1.33801380
H        4.54499721      -1.92533227      -2.78126722
H        3.51725020      -3.44666863      -2.46899904
H        2.15977810       2.39628680      -0.43668766
H        4.60573766       1.74743166       1.34762719
H        3.93787793       3.43412401       0.92549760
