12
Properties=species:S:1:pos:R:3 -1308.038723154344=T 10.558324=T 11.34195=T -9.7113=T -7.6968=T -10.74=T -0.3389=T -2.0973=T -0.669=T 9.62681=T 1.28247=T 3.5156354286=T 10.1952075982=T 0.198033976=T pbc="F F F"
O        1.19383374       0.29847656      -1.07732317
C        1.78244581       0.52920954      -0.02744254
C        1.48519232      -0.20594314       1.19066305
C        1.23125332      -0.81190706       2.21394638
C        2.87514374       1.55397644       0.09469219
C        3.74679859       1.81508671      -1.09984658
N        2.70779001       2.77644411      -0.73598782
H        0.99052747      -1.35508271       3.10600059
H        3.32542127       1.65235257       1.08540374
H        3.52555833       1.24571382      -2.00534603
H        4.79786807       2.04517793      -0.90947852
H        3.12316734       3.56381522      -0.22622129
