17
Properties=species:S:1:pos:R:3 -1656.2065954557409=T 12.122796=T 12.83758=T -8.3229=T -6.4141=T -9.805=T 1.5646=T 0.0464=T 1.022=T 9.16605=T -0.30565=T 4.869860115=T 6.4577240198=T 0.354730447=T pbc="F F F"
C        1.11047935       0.31432069      -0.68429644
C        2.45098489      -0.10392649      -0.15065056
C        2.73008222      -1.58182277      -0.01926469
N        3.27247582       0.83921586       0.15903629
N        4.53569893       0.33470213       0.66366403
C        5.61194650       1.28652666       0.27612255
C        5.07100726       1.30896616       1.65300241
H        1.03609647       1.40695746      -0.72924970
H        0.30387503      -0.08049301      -0.04618996
H        0.95117523      -0.10413020      -1.69086774
H        1.86969024      -2.17620637      -0.35143329
H        2.96584887      -1.83869980       1.02270497
H        3.61284211      -1.86199607      -0.61037876
H        5.30887880       2.09683094      -0.38965208
H        6.56990693       0.81117271       0.05921105
H        5.61993926       0.85047929       2.47711072
H        4.40479210       2.13424283       1.91138121
