19
Properties=species:S:1:pos:R:3 -1809.372400836918=T 11.866446=T 13.18464=T -9.1948=T -6.9749=T -10.591=T 0.8573=T -0.1045=T 2.841=T 10.12871=T -2.50133=T 8.4782370716=T 11.250799605=T 0.177702934=T pbc="F F F"
C        0.86302970       0.15474722      -0.42276287
C        2.30268528      -0.03042625       0.01618474
C        2.57862860       0.04998193       1.51013153
C        2.30997496       1.42401921       2.13333630
N        2.76516532       1.43911722       3.53352262
C        3.19350473      -0.90107926      -0.80225907
N        3.29714142       0.57606626      -0.90927792
H        0.78496105       0.06887917      -1.51433098
H        0.48147997       1.14661089      -0.13908004
H        0.21287761      -0.60637698       0.03575487
H        3.63146492      -0.21286443       1.70698097
H        1.96657973      -0.70963576       2.03108183
H        1.24091243       1.68650438       2.00872596
H        2.88725615       2.18787594       1.58653693
H        2.18653163       0.80293654       4.09005726
H        2.62255682       2.36931354       3.93380370
H        2.79849918      -1.39440585      -1.69443983
H        3.98927317      -1.44732705      -0.28819356
H        4.11150734       0.88749330      -0.36711245
