17
Properties=species:S:1:pos:R:3 -1644.304673788102=T 11.470715=T 12.53847=T -9.1751=T -6.9032=T -9.038=T 0.9953=T 0.039=T 1.44=T 8.52909=T -0.81863=T 6.3063247152=T 0.409345653=T pbc="F F F"
C        0.64919522       1.05383274       0.82098887
C        2.14082492       1.04878758       0.96424628
C        3.01161002       1.43522091       0.02139300
C        4.50534517       1.42961927       0.16190893
C        5.12177167       2.83177857       0.05434802
N        6.59121053       2.75257942       0.07428217
H        0.23297137       0.04165903       0.95208435
H        0.33951243       1.42437079      -0.16638340
H        0.17492774       1.68657574       1.58865212
H        2.53675511       0.68917021       1.92295047
H        2.61754912       1.79614303      -0.93849058
H        4.96239976       0.80491436      -0.62521699
H        4.78567413       0.97819911       1.12954269
H        4.68824390       3.47089760       0.84991023
H        4.82566101       3.28100529      -0.90834884
H        6.90566135       2.42578789       0.99251735
H        6.99019656       3.68711846      -0.04177469
