14
Properties=species:S:1:pos:R:3 -1418.510532075978=T 11.007348=T 11.25304=T -8.9563=T -7.0318=T -10.213=T 0.2663=T -1.417=T -0.66=T 9.72815=T 1.27993=T 4.1061807466=T 5.345594397=T 0.442336228=T pbc="F F F"
C        0.97481933      -0.16581457      -0.02996782
C        2.45148209       0.03454795      -0.00155287
C        3.07615864       1.22319520      -0.06772425
C        4.54394061       1.31777829      -0.02382040
O        5.34581109       0.36775321       0.01418910
N        5.05274909       2.59979639      -0.08256248
O        6.43319606       2.67647255       0.14497890
H        0.68806698      -0.80784918      -0.87827186
H        0.42672352       0.78236444      -0.10980746
H        0.63631881      -0.69103744       0.87751042
H        3.08489186      -0.85553666       0.07669577
H        2.50620526       2.15384816      -0.15627905
H        4.56391715       3.36910732       0.37487951
H        6.63733951       1.69708434       0.19227249
