12
Properties=species:S:1:pos:R:3 -1237.9046433132662=T 9.83411=T 10.30565=T -9.2398=T -7.1978=T -9.956=T 0.7613=T -0.2111=T 0.905=T 9.29019=T -0.2885=T 4.3451389644=T 10.7224084688=T 0.624509627=T pbc="F F F"
N        1.21726191       0.12506482       0.52364859
C        2.38606233      -0.16417362      -0.15741836
N        2.63391490      -1.16556610      -0.92521825
C        3.46343901       0.92074227      -0.05349373
C        3.51487614       1.62249666       1.22165978
C        3.52288739       2.19796956       2.29112947
H        1.30434821       0.75040820       1.32367930
H        0.55819006      -0.63800762       0.64744581
H        1.83224544      -1.81039602      -0.97082495
H        3.28118464       1.64899959      -0.86181005
H        4.42435671       0.43706457      -0.27582588
H        3.55900327       2.71273770       3.22965827
