18
Properties=species:S:1:pos:R:3 -1786.651589233912=T 12.624811=T 13.83286=T -8.9363=T -6.8885=T -9.064=T 0.9933=T 0.137=T 1.495=T 8.53305=T -0.85814=T 6.3631351004=T 0.404829993=T pbc="F F F"
C        1.18222854       1.52969410       1.30893487
C        2.55653038       1.18951977       0.81925340
C        3.26141499       1.90608761      -0.06626068
C        4.62845921       1.53879762      -0.56249353
N        5.57675444       2.64816160      -0.37415784
C        6.26196499       2.66559241       0.92227704
C        6.98805333       2.25531822      -0.31660070
H        0.46444469       0.72874312       1.06888138
H        0.81417032       2.46386327       0.86272797
H        1.16787821       1.64249196       2.40491806
H        3.00352862       0.27210016       1.22349059
H        2.83941514       2.83117167      -0.47580206
H        4.59270723       1.33621159      -1.64792094
H        4.97162941       0.60568530      -0.06493714
H        6.01365331       1.87507372       1.63865318
H        6.42604786       3.65338287       1.35853693
H        7.69063810       2.93776518      -0.80022074
H        7.22675121       1.19105982      -0.42051980
