15
Properties=species:S:1:pos:R:3 -1525.9661860987817=T 10.024302=T 11.65862=T -10.0242=T -7.9058=T -11.639=T 1.0273=T 0.1715=T 2.428=T 11.41813=T -2.11891=T 9.0234903038=T 10.5783863312=T 0.524767458=T pbc="F F F"
C        0.92476518       0.16782742      -0.19412525
C        2.39300853       0.16435130       0.13156453
O        3.18650340      -0.91265630      -0.42406630
C        3.42953044       0.43726125      -0.88146796
C        4.75528685       1.01628160      -0.50886097
C        5.78625937       1.28028384      -1.52697588
O        5.00390241       2.35979212      -0.97807698
H        0.48633382       1.14989599       0.03565446
H        0.39500804      -0.58786564       0.40312368
H        0.75824254      -0.05215474      -1.25679721
H        2.65053598       0.39491792       1.17426831
H        3.10619442       0.64512555      -1.91012310
H        5.07937866       0.81662512       0.52011467
H        5.57735855       1.03931008      -2.57489092
H        6.84145181       1.27340449      -1.23514109
