18
Properties=species:S:1:pos:R:3 -1744.802514513211=T 11.264551=T 12.50081=T -9.17=T -6.8789=T -10.576=T 0.9111=T -0.0424=T 2.975=T 10.55662=T -2.62869=T 8.642878081=T 10.7181061546=T 0.22775675=T pbc="F F F"
C        0.84090360       0.24699247      -0.35251526
C        2.27646347       0.08905799       0.11196701
C        2.48599720       0.15121455       1.61595182
N        1.93825403      -1.04048323       2.28981138
C        3.18516855      -0.84009844      -0.67914720
C        3.35873013       0.65699456      -0.77659109
O        4.46755147       1.28699723      -0.16539235
H        0.77636461       0.27884678      -1.44981017
H        0.39986500       1.17863044       0.03730528
H        0.21655694      -0.59677126      -0.01846977
H        2.05709216       1.10800039       1.98117475
H        3.56437334       0.19330067       1.82194900
H        0.91597968      -1.03134426       2.24140678
H        2.16751296      -0.99878472       3.28556819
H        2.77656813      -1.37941176      -1.53567896
H        3.92774067      -1.38853563      -0.09750901
H        3.01712290       1.14828147      -1.69646683
H        5.26164516       1.02790276      -0.66482356
