18
Properties=species:S:1:pos:R:3 -1738.908317415024=T 11.309822=T 12.46703=T -8.3656=T -6.3282=T -9.74=T 0.8627=T -0.0972=T 3.152=T 9.09108=T -2.82411=T 7.6443072356=T 10.749090256=T 0.17041497=T pbc="F F F"
C        2.15269811      -0.73843231      -1.34959605
N        1.85263488       0.33784892      -0.40343974
C        3.02006416       1.05938391       0.07079970
C        3.78987815       0.33488929       1.15578692
C        3.81090084       1.94976627      -0.90356496
C        2.89562967       2.55313271       0.14436878
O        3.43404868       3.21173513       1.26918442
H        2.76958720      -0.42139156      -2.21559615
H        1.20978156      -1.15690747      -1.72685272
H        2.68841624      -1.55026313      -0.83650860
H        1.19329459       0.99232536      -0.82811068
H        4.59241953       0.96636016       1.55472905
H        4.23874643      -0.59145807       0.76810588
H        3.11076779       0.07239436       1.97945995
H        3.49515258       1.99452608      -1.94764988
H        4.88520686       2.04711128      -0.73516699
H        1.94482238       2.97525718      -0.21001818
H        3.82735034       4.04586188       0.95742925
