17
Properties=species:S:1:pos:R:3 -1665.418184427544=T 12.5713=T 14.01924=T -8.8916=T -6.7131=T -9.253=T 0.7604=T -0.1732=T 2.298=T 8.85178=T -1.86581=T 4.1364581278=T 10.7171390638=T 0.262790566=T pbc="F F F"
C        0.94995821       0.03932355       0.08376391
C        2.40421964       0.00998323       0.02549880
C        3.62127883      -0.02689681      -0.01446971
C        5.08433212      -0.03358736      -0.11442000
N        5.61133585      -0.73989639      -1.30591084
C        5.65318333       1.41354751      -0.10908575
N        7.10875385       1.50708912      -0.11805667
H        0.57181927       1.07257614       0.10268572
H        0.57823666      -0.46947502       0.98585620
H        0.50569516      -0.46249555      -0.78915013
H        5.50011367      -0.55275695       0.76836727
H        5.09963963      -0.40559149      -2.12932996
H        5.38994989      -1.73592936      -1.23279233
H        5.25639524       1.94774398       0.76654680
H        5.25646881       1.93229552      -0.99914718
H        7.46330700       0.85632943      -0.82672307
H        7.48227282       1.17998044       0.77716695
