19
Properties=species:S:1:pos:R:3 -1868.1632756952106=T 12.216947=T 13.2273=T -9.4941=T -7.3146=T -9.299=T 1.2607=T -0.0118=T 1.325=T 8.66068=T -0.69273=T 6.3931273138=T 0.370348794=T pbc="F F F"
C        4.98153598      -0.11537912       2.02604857
O        4.01204300       0.92623956       2.06092674
C        3.86879919       1.60408026       0.79772426
C        2.59444992       2.43802337       0.90031137
C        5.10197133       2.43271723       0.46244786
C        5.51767760       3.47562141       1.46462672
C        5.77699113       2.21358100      -0.67598063
H        4.98487500      -0.57562209       3.02227288
H        5.99385553       0.26202812       1.79590212
H        4.71779224      -0.88340952       1.27374463
H        3.74120600       0.84378882      -0.00024633
H        2.66008666       3.15154768       1.73295983
H        1.73343676       1.78093641       1.08104366
H        2.42719548       2.99619424      -0.03069058
H        5.62315370       3.03032321       2.46566757
H        4.75993077       4.27006387       1.55398725
H        6.46950991       3.94266562       1.18124135
H        5.46413446       1.44066567      -1.38212508
H        6.65575535       2.80471426      -0.94367219
