13
Properties=species:S:1:pos:R:3 -1319.317706236296=T 9.565838=T 9.88508=T -9.0282=T -6.98=T -10.297=T 0.9914=T -0.6635=T 0.357=T 9.85847=T 0.22837=T 5.0335712294=T 6.2643678528=T 0.152197394=T pbc="F F F"
C        0.71601260      -1.19118567       0.52259687
O       -0.52336400      -1.47338503      -0.17367602
N       -1.57323690      -0.54651964      -0.05952516
C       -1.25390569       0.69151602       0.11437267
C        0.11657327       1.23467977       0.20575814
N        1.03343244       0.85477825      -0.92913259
C        1.19637736       0.23195167       0.38905296
H        1.42425964      -1.91369139       0.09264305
H        0.58005405      -1.41447231       1.59739408
H       -2.11553347       1.36250140       0.17212289
H        0.22764408       2.22982934       0.64065462
H        1.72690796       1.60299842      -1.04026104
H        2.05484866       0.49817917       1.01496953
