18
Properties=species:S:1:pos:R:3 -1751.7999976718904=T 11.840498=T 12.47051=T -9.1744=T -7.0023=T -9.385=T 0.7954=T -0.4695=T 1.228=T 8.75418=T -0.59342=T 6.4095678574=T 0.403385651=T pbc="F F F"
N        2.62059932      -0.47789703       1.42238893
C        2.34796666       0.08903167       0.07938762
C        2.72352487       1.55645611       0.01281639
C        1.75092323       2.48160222      -0.04579617
C        4.18680825       1.93855355      -0.00733924
C        4.96015701       1.76889863       1.32047477
O        5.23775447       0.42568019       1.67339655
H        2.44712954      -1.48607732       1.42094230
H        1.97617122      -0.06605641       2.10292595
H        1.29210505      -0.02638809      -0.22350734
H        2.96304521      -0.47708317      -0.63918414
H        0.69510171       2.20037427      -0.04260134
H        1.97876008       3.54769966      -0.10946031
H        4.26349608       2.99719483      -0.30385299
H        4.71504191       1.34433200      -0.77321910
H        4.40684105       2.29920862       2.12310454
H        5.93459710       2.27109275       1.21142112
H        4.35265728      -0.02746250       1.73799245
