10
Properties=species:S:1:pos:R:3 -1146.1639988222555=T 11.058026=T 10.79539=T -9.7122=T -7.7294=T -9.483=T -0.9001=T -2.6316=T -1.166=T 9.63933=T 1.80653=T 3.218428588=T 5.9337963796=T 0.370446563=T pbc="F F F"
C        0.94368349      -0.02672156       0.00000000
C        2.29110525       0.03553070       0.00000000
C        3.01580945       1.24803550       0.00000000
C        3.65266260       2.29423286       0.00000000
C        4.43337142       3.49785750       0.00000000
O        3.95907715       4.62901457       0.00000000
H        0.43211892      -0.98892697       0.00000000
H        0.33469004       0.87758714       0.00000000
H        2.87860510      -0.88793967       0.00000000
H        5.53700657       3.33088994       0.00000000
