17
Properties=species:S:1:pos:R:3 -1766.9188521637577=T 13.05591=T 14.27498=T -9.5748=T -7.3078=T -9.453=T 1.0195=T 0.0064=T 1.315=T 8.98442=T -0.75474=T 4.3549586556=T 10.7242434616=T 0.51469975=T pbc="F F F"
C        1.42131920      -0.24725285       0.60828388
C        2.16502667       0.44576109      -0.26176888
C        3.02502587       1.62659365       0.07934668
C        4.50909154       1.38975338      -0.24162059
C        5.39836945       2.61860123       0.04202342
C        5.08000423       3.77731348      -0.78497880
C        4.80916449       4.72893752      -1.48926330
H        0.81799637      -1.09992876       0.29344507
H        1.38754665       0.02091813       1.66779878
H        2.16931531       0.14038071      -1.31548154
H        2.90908569       1.87611592       1.14759113
H        2.68451015       2.50725738      -0.49368309
H        4.61928699       1.10571725      -1.30065261
H        4.88360204       0.54422425       0.35669662
H        6.45517965       2.34772974      -0.11700331
H        5.30975564       2.90042391       1.10565703
H        4.57466006       5.57341397      -2.10441048
