13
Properties=species:S:1:pos:R:3 -1310.2705769469392=T 8.844361=T 9.71275=T -9.6277=T -7.4025=T -11.034=T 1.2078=T -0.873=T -0.124=T 10.20149=T 0.74298=T 3.674883047=T 11.5893929724=T 0.152178662=T pbc="F F F"
O        2.25497257       0.40162203       1.48291584
C        2.03650467       0.86837846       0.37963960
C        3.08904433       1.36206903      -0.58113049
C        4.51347650       1.15755042      -0.13087369
C        5.28323676      -0.05596165      -0.50994845
N        5.53349296       1.23082336      -1.20030470
H        0.98451648       0.97289558       0.00324767
H        2.87992784       2.43461149      -0.75944842
H        2.91745978       0.88304129      -1.56126586
H        4.75676677       1.59521495       0.84144255
H        4.81181871      -0.82021304      -1.13322602
H        6.02299333      -0.43305016       0.19968888
H        6.38932930       1.65664823      -0.83140691
