17
Properties=species:S:1:pos:R:3 -1692.1925963809233=T 10.434151=T 11.82138=T -9.6953=T -7.4708=T -11.416=T 0.9955=T 0.0903=T 3.098=T 10.85764=T -2.79686=T 9.171616378=T 11.282540021=T 0.128123726=T pbc="F F F"
C        2.10676354      -0.31212629      -1.48459132
C        2.45054412       0.12118785      -0.05906441
C        3.19737741       1.43839885      -0.00873006
O        2.37323237       2.51155073      -0.44796971
C        3.00653100       3.66929669       0.10345129
C        3.48839022       3.18380362       1.48127619
O        3.57858161       1.75478950       1.33890561
H        1.58446779      -1.27845291      -1.48245771
H        3.01342691      -0.42504735      -2.09834628
H        1.45707620       0.42508095      -1.97575976
H        3.08648852      -0.63078080       0.43248453
H        1.54234510       0.23143146       0.55324082
H        4.11534656       1.40551805      -0.64070786
H        3.85706410       3.98377123      -0.53045915
H        2.26718704       4.47875764       0.14901982
H        4.47117608       3.60234988       1.75219888
H        2.76475143       3.41174091       2.28004912
