16
Properties=species:S:1:pos:R:3 -1613.763028131252=T 11.564877=T 12.27484=T -9.0374=T -6.8525=T -10.004=T -0.0634=T -1.842=T -0.868=T 9.77193=T 1.43151=T 3.4175625026=T 5.2585066306=T 0.393243824=T pbc="F F F"
C        2.57150293      -0.47537469       1.16831439
N        3.84536683      -1.10057008       0.81269359
C        4.65960170      -0.24832514      -0.04535374
C        6.01043459      -0.83509399      -0.35533284
C        6.51438243      -1.94842189       0.21077603
C        6.84856188      -0.12602655      -1.34873611
O        6.52238175       0.90020373      -1.92886724
H        1.96597629      -1.18492797       1.74814298
H        1.97346702      -0.13370884       0.29817813
H        2.76160174       0.40023743       1.80745371
H        3.65917764      -1.97990588       0.32230306
H        4.81612109       0.71629798       0.47026805
H        4.17059063       0.02251415      -1.00612203
H        5.96224677      -2.50285581       0.96986217
H        7.50656613      -2.30802877      -0.07135838
H        7.84392059      -0.60546368      -1.53686177
