17
Properties=species:S:1:pos:R:3 -1586.3223055612013=T 11.805746=T 12.69307=T -8.8856=T -6.6796=T -10.081=T 1.4142=T -0.511=T 0.329=T 10.4036=T 0.17987=T 5.3314723916=T 6.5991424514=T 0.491994719=T pbc="F F F"
C        0.95039839      -0.20912517       0.04978196
N        2.40384721      -0.06248682       0.09411855
C        2.84030933       1.30273152      -0.19005811
C        4.35330801       1.39771083      -0.05369234
O        4.72195705       2.75408269      -0.36913712
N        6.11785831       2.87868356      -0.29039383
C        6.49302086       4.07964516      -0.53488278
H        0.68373423      -1.26358965       0.20506268
H        0.48595012       0.13321068      -0.89909196
H        0.50050387       0.37181597       0.86960893
H        2.82315353      -0.69597298      -0.59155706
H        2.36950655       1.97422796       0.54696090
H        2.53636888       1.66763726      -1.19524157
H        4.85956820       0.71110003      -0.75429448
H        4.66857612       1.14837829       0.97110099
H        7.56715412       4.26071664      -0.49730550
H        5.79545522       4.89199403      -0.76997925
