15
Properties=species:S:1:pos:R:3 -1629.3549883612884=T 10.781956=T 11.44984=T -9.1894=T -7.094=T -9.554=T 0.9449=T -0.7379=T 0.283=T 9.55984=T 0.4555=T 3.7394053614=T 6.2451996172=T 0.284525355=T pbc="F F F"
O        1.04891088       0.11033862       0.87551101
C        2.11522373       0.03420677       0.28333801
C        2.83054725       1.24398197      -0.28642722
C        4.31429767       1.28243117       0.12618098
C        4.98103731      -0.05456976      -0.04745711
C        4.30309003      -1.20972787      -0.10230964
C        2.80769919      -1.30355076       0.04708533
H        2.28844448       2.15104228       0.01002052
H        2.77808775       1.15566098      -1.38671051
H        4.40139827       1.60738399       1.17890924
H        4.84123176       2.04939983      -0.46307000
H        6.07165181      -0.06863687      -0.12187956
H        4.84494523      -2.15072558      -0.23100541
H        2.35585428      -1.74759512      -0.86031974
H        2.52444036      -1.97982966       0.86952412
