19
Properties=species:S:1:pos:R:3 -1873.1813383394929=T 11.775967=T 13.34748=T -9.0454=T -6.9016=T -10.579=T 0.8803=T -0.051=T 2.903=T 10.24685=T -2.61827=T 8.2872490372=T 10.3828480106=T 0.159959796=T pbc="F F F"
C        2.87397230      -1.04146325      -0.40162939
C        2.38358651       0.23890293       0.28255795
C        3.40461826       1.35704207       0.21633239
C        3.50407986       2.27550591      -1.00365977
C        3.07839326       2.82696326       0.33792702
C        1.67343133       3.32824856       0.55876677
O        3.97394295       3.67063922       1.05476726
H        2.11579369      -1.83628833      -0.35445754
H        3.78805300      -1.42267734       0.07858454
H        3.10742216      -0.85746728      -1.46101606
H        2.13828297       0.02584602       1.33722268
H        1.44417721       0.56722475      -0.19064176
H        4.37333020       1.08538032       0.65454746
H        2.74346972       2.16950644      -1.78126210
H        4.49573929       2.53982040      -1.37578585
H        0.93987063       2.73263819       0.00305268
H        1.59531425       4.37219907       0.22205598
H        1.41795697       3.29250643       1.62801464
H        4.86828543       3.29407263       0.98723310
