15
Properties=species:S:1:pos:R:3 -1597.5692246305346=T 11.224493=T 11.75116=T -9.1378=T -6.9308=T -9.111=T 1.5111=T -0.1152=T 1.205=T 9.22363=T -0.64284=T 6.0853692646=T 6.791085178=T 0.380058354=T pbc="F F F"
C        0.85927640       0.43768446      -0.25430370
C        2.13506916       0.21784131       0.07818626
C        3.25705399       1.22952959       0.01018371
O        3.87441090       1.35965510       1.32306524
C        3.69761882       2.70314908       1.80387049
C        3.10764534       3.46297315       0.65474808
C        2.86437086       2.63294003      -0.36291636
H        0.11035852      -0.35159212      -0.17609023
H        0.51596595       1.41206659      -0.60858488
H        2.44473675      -0.76814307       0.43909406
H        4.03456336       0.83537113      -0.67626376
H        4.68022090       3.10066067       2.11831150
H        3.03413949       2.71160579       2.69145358
H        2.91534605       4.53523254       0.68026089
H        2.44501349       2.89894575      -1.33187487
