18
Properties=species:S:1:pos:R:3 -1750.1219104113527=T 11.32759=T 12.65064=T -8.9606=T -6.8298=T -10.598=T 0.7786=T -0.2135=T 2.96=T 10.26864=T -2.60432=T 8.3160385864=T 10.4818136358=T 0.180533098=T pbc="F F F"
C        0.98058948      -0.10908844      -0.04977753
C        2.49241418      -0.06932853      -0.04669405
C        3.28943773      -0.71284039      -1.17789084
C        3.24103096       0.79914480      -1.01532528
O        2.47168788       1.54239221      -1.93468671
C        4.48483737       1.54981420      -0.58267068
N        5.20247003       1.98982829      -1.79501935
H        0.56373769       0.69271492       0.57820954
H        0.61337086      -1.07079212       0.33909577
H        0.58694617       0.02875735      -1.06522531
H        2.95016118      -0.14933383       0.94480243
H        2.71135678      -1.12036323      -2.00865733
H        4.20590093      -1.25439810      -0.93355450
H        3.15094864       1.98076956      -2.49341088
H        5.08518467       0.92310595       0.10298288
H        4.17877605       2.45444125      -0.03255122
H        5.72983829       1.21116340      -2.19740637
H        5.87555114       2.72499270      -1.57455055
