14
Properties=species:S:1:pos:R:3 -1453.043681192315=T 9.609998=T 10.34659=T -8.0518=T -5.9844=T -8.639=T 0.9773=T 0.0762=T 1.368=T 8.15717=T -0.77572=T 5.7187550612=T 0.25566876=T pbc="F F F"
C        1.04607621       0.08355447       0.00525847
C        2.52300907      -0.07931865      -0.06903319
C        3.29562571      -1.17802359      -0.11006021
C        4.74846535      -0.76493034      -0.08015856
C        4.62555220       0.75149370      -0.33238976
O        3.23294492       1.10819562      -0.06901059
H        0.55036061      -0.89393613       0.00514288
H        0.67566509       0.67326163      -0.84654654
H        0.76498904       0.62319151       0.92238403
H        2.93204764      -2.20146743      -0.08566799
H        5.21497060      -0.98976928       0.89589871
H        5.36316622      -1.25073568      -0.85282595
H        4.83353903       1.00295209      -1.38558572
H        5.25437831       1.37267208       0.31802442
