19
Properties=species:S:1:pos:R:3 -1795.1673672904124=T 12.958864=T 13.35076=T -7.8711=T -6.0441=T -8.662=T 1.1021=T -0.199=T 0.789=T 7.95424=T -0.21899=T 4.4579290286=T 5.1248497226=T 0.289928611=T pbc="F F F"
C        2.61097134      -0.62383747      -0.20468525
C        1.60820961       0.40302073       0.30648207
N        2.25458944       1.60890935       0.85071503
C        1.45555982       2.84138366       0.77601639
C        1.42116150       3.43969311      -0.63004067
N        3.03929179       1.31944979       1.91893521
C        3.46187295       2.20622893       2.75546680
H        2.08258142      -1.51182656      -0.57964810
H        3.28615267      -0.93344153       0.60266477
H        3.21680821      -0.20558984      -1.02109721
H        0.95182524      -0.04936780       1.07555212
H        0.95916289       0.73287343      -0.51685228
H        1.89127790       3.57815040       1.46016798
H        0.42811468       2.64226855       1.14106139
H        2.43795996       3.67064828      -0.97589536
H        0.83335805       4.36904898      -0.63011512
H        0.96116358       2.75887511      -1.35982814
H        4.12863264       1.84451440       3.53938834
H        3.23091632       3.27972849       2.73360203
