16
Properties=species:S:1:pos:R:3 -1644.781422442175=T 12.311013=T 12.87075=T -8.3531=T -6.3813=T -8.744=T 1.2922=T -0.3026=T 0.327=T 8.2602=T 0.39711=T 4.290907488=T 5.0695023722=T 0.307814094=T pbc="F F F"
C        0.74694488       0.02901021       0.01895689
C        2.22463208      -0.07398691       0.23754678
C        3.09970499       0.88470058      -0.10729355
N        4.48158812       0.80639078       0.09378178
C        5.35966283       1.81804345      -0.26498893
C        6.81511396       1.55234440       0.07171277
O        4.98353183       2.85657168      -0.80266930
H        0.37682087      -0.78356096      -0.62702457
H        0.47721275       0.98422793      -0.45201993
H        0.19340602      -0.04821336       0.96887141
H        2.59494754      -0.99216752       0.70892108
H        2.79898797       1.82140488      -0.57996562
H        4.85850106      -0.02941476       0.53321565
H        7.01329520       0.53166574       0.42432410
H        7.13001364       2.26222926       0.84902176
H        7.42354627       1.75261460      -0.81895032
