15
Properties=species:S:1:pos:R:3 -1570.2123987996695=T 11.643743=T 11.65916=T -8.5588=T -6.6957=T -9.156=T 0.7513=T -0.8725=T 0.055=T 8.50034=T 0.43597=T 4.7535736456=T 5.3950524124=T 0.530777965=T pbc="F F F"
N        0.87882517      -0.06199672       0.10230174
C        2.17057293       0.03771266       0.06179915
N        2.92243744       1.18774819       0.30973823
C        4.28016091       1.28743958      -0.23797317
C        5.08907108       0.05131874       0.15167034
C        4.30216750      -1.19771382      -0.12900033
C        2.95896665      -1.18188583      -0.18845110
H        0.44492811       0.85240711       0.30002602
H        2.38100679       2.04920139       0.27207928
H        4.74636096       2.19843119       0.16310435
H        4.26374012       1.37390841      -1.34245944
H        5.35194893       0.08793023       1.22480181
H        6.03992061       0.04478714      -0.40310161
H        4.84516167      -2.13693934      -0.26032836
H        2.37118113      -2.07947893      -0.37978691
