16
Properties=species:S:1:pos:R:3 -1628.756921256026=T 13.041061=T 13.04861=T -8.2392=T -6.4164=T -8.991=T 0.7162=T -0.8781=T -0.568=T 8.30977=T 1.22244=T 3.544511768=T 4.4975549542=T 0.575527039=T pbc="F F F"
C        1.29598866      -0.24093230      -0.76325419
C        2.55855050      -0.04363207       0.06930453
N        3.11838911       1.29391940      -0.09807808
C        4.44672441       1.56791916      -0.11393492
C        5.03644357       2.79914100      -0.06162611
C        6.47462637       2.90815477      -0.13323851
O        7.12166070       3.95533944      -0.09077207
H        0.88625897      -1.24672597      -0.59838050
H        1.50546065      -0.11919755      -1.83454571
H        0.51623965       0.48197253      -0.48061653
H        3.33437319      -0.76070306      -0.23690600
H        2.34258816      -0.24088991       1.13546881
H        2.48243368       2.07550300       0.04850283
H        5.08752351       0.68301134      -0.20254051
H        4.45378954       3.71874288       0.03625407
H        7.00382932       1.91926734      -0.23160713
