17
Properties=species:S:1:pos:R:3 -1620.1184453808671=T 10.861938=T 11.99844=T -8.6382=T -6.4859=T -9.896=T 0.7479=T -0.2271=T 2.999=T 9.54168=T -2.66681=T 7.9345584616=T 11.3662677668=T 0.18842739=T pbc="F F F"
N        1.06802019      -0.14099976      -0.07249624
C        2.51076724      -0.09591198       0.02618763
C        3.28929104      -0.71208773      -1.13968008
N        2.64454349      -1.34171823      -2.27129932
C        3.22413303       0.78679390      -0.98463411
C        4.45609023       1.56811562      -0.60331832
O        5.28817460       1.86970514      -1.73117149
H        0.64929944       0.69893481       0.33322936
H        0.69781361      -0.94018751       0.44737355
H        2.97558629      -0.16654590       1.01956832
H        4.24144797      -1.18182843      -0.87501264
H        1.69088412      -0.96887470      -2.33725180
H        2.53439921      -2.34271995      -2.08110716
H        2.55774116       1.29001222      -1.69282267
H        5.02562574       1.01168514       0.16779586
H        4.18568449       2.54399521      -0.16965929
H        5.36179813       1.05097215      -2.25474160
