15
Properties=species:S:1:pos:R:3 -1609.8187594664917=T 10.281374=T 11.00414=T -9.3557=T -7.1694=T -8.936=T 1.416=T -0.103=T 1.202=T 8.41334=T -0.5891=T 5.8013421358=T 0.230398906=T pbc="F F F"
C        0.39814423       1.54026536       0.38564490
C        1.46659804       0.46979303       0.02934091
C        0.61345246      -0.52386120      -0.82960078
O       -0.26289591       0.38993706      -1.52880155
C       -0.86049367       0.95289807      -0.33809271
C       -1.26430375      -0.29118097       0.44078749
C       -0.34158043      -1.21570853       0.13307942
H        0.65336148       2.51650484      -0.04749394
H        0.24221725       1.66511481       1.46531458
H        1.91694269      -0.01265299       0.90684544
H        2.26872818       0.89807759      -0.58625129
H        1.16724846      -1.14504423      -1.54202781
H       -1.64359846       1.67108675      -0.60467246
H       -2.06197147      -0.34652770       1.17954976
H       -0.20442910      -2.20766189       0.56008804
