16
Properties=species:S:1:pos:R:3 -1504.9141485399655=T 11.106398=T 11.35336=T -8.3617=T -6.3616=T -9.101=T 1.5031=T -0.2006=T 0.695=T 8.52798=T -0.17626=T 4.7591034212=T 5.3813395608=T 0.33353965=T pbc="F F F"
C        0.92353726      -0.20112170      -0.13379060
C        2.44266294      -0.10153476      -0.25407552
C        2.99563200      -1.01932680      -1.34271327
N        2.78258582       1.30119152      -0.55298957
N        4.10660230       1.59769520      -0.57072479
C        4.47651339       2.81335788      -0.36571339
H        0.53617199       0.44873053       0.66637512
H        0.62980214      -1.23202893       0.10453978
H        0.43970697       0.08641488      -1.07941030
H        2.89428859      -0.39335576       0.71548929
H        2.51922014      -0.79676698      -2.30932612
H        2.80295232      -2.07091363      -1.08710755
H        4.07796333      -0.87616546      -1.44943361
H        2.19190496       1.98070325      -0.05378923
H        5.54064140       3.03846371      -0.43895783
H        3.77191443       3.63062704      -0.13559240
