17
Properties=species:S:1:pos:R:3 -1683.3023288385307=T 10.92222=T 12.53698=T -9.9172=T -7.6241=T -11.006=T 1.0297=T -1.0719=T -0.03=T 10.14686=T 0.63667=T 3.6673446982=T 11.3739053044=T 0.126716503=T pbc="F F F"
C        0.81750125      -0.36695643       0.11924555
C        2.32735330      -0.12370966       0.08762074
C        2.66637987       1.35623083       0.00765607
O        4.08691014       1.51100049      -0.00333279
C        4.48167317       2.86661824      -0.07455750
C        5.99704833       2.93199098      -0.06929249
O        6.62318987       3.97209818      -0.11089544
H        0.59465095      -1.44080232       0.17974505
H        0.32682326       0.02320806      -0.78537465
H        0.34945456       0.11870754       0.98894843
H        2.77947155      -0.63607396      -0.77618090
H        2.80103637      -0.54377327       0.98890720
H        2.23743895       1.90001924       0.87447321
H        2.23317519       1.80577117      -0.90968216
H        4.10087439       3.45797763       0.78367175
H        4.11151151       3.36085573      -0.99687644
H        6.49857735       1.93163756      -0.02206564
