18
Properties=species:S:1:pos:R:3 -1793.6296128404495=T 12.163667=T 12.9954=T -8.7081=T -6.6471=T -9.391=T 1.3432=T 0.0013=T 1.348=T 8.85559=T -0.75435=T 6.5567020436=T 0.410962335=T pbc="F F F"
C        0.76538505       0.28157976       0.32891688
C        2.24782387       0.06005160       0.02396543
C        3.26536035       0.98735889       0.77756333
C        4.04988698      -0.30321393       1.10124548
N        2.83665673      -1.09675798       0.76373277
C        2.48354008       0.09575671      -1.46857921
C        3.08964285      -0.83452183      -2.21354650
H        0.60733437       0.29306319       1.41555376
H        0.15780556      -0.52842119      -0.10153507
H        0.41163518       1.23409537      -0.09437864
H        2.81244297       1.44846928       1.66550519
H        3.77547555       1.75096880       0.17808757
H        4.90174218      -0.45244518       0.41498649
H        4.39611734      -0.43455090       2.13788660
H        3.00122695      -1.93333429       0.19798688
H        2.09977379       0.99767553      -1.96165440
H        3.49334511      -1.75540714      -1.78364442
H        3.20587511      -0.71031667      -3.29074213
