15
Properties=species:S:1:pos:R:3 -1506.4722888092533=T 11.680762=T 11.89891=T -8.8522=T -6.9774=T -9.605=T 0.918=T -0.7576=T 0.014=T 9.04435=T 0.56398=T 4.3690434652=T 5.2993104232=T 0.48466679=T pbc="F F F"
C        1.29476404       2.88232838       1.41240571
C        2.53950851       2.15266324       1.03391987
N        3.59596778       2.79135650       0.66976395
N        4.69284226       2.05618505       0.34001768
C        5.89223013       2.62112367      -0.07445871
C        5.93224938       4.12876509      -0.14775255
O        6.83531271       1.88516760      -0.35420209
H        0.99428248       2.63642495       2.44326574
H        0.45577913       2.59078066       0.76073487
H        1.44717308       3.96544395       1.33403568
H        2.52781911       1.04808571       1.07490447
H        4.67751474       1.02897524       0.38276158
H        5.17365539       4.50367067      -0.84816232
H        6.93237823       4.42530018      -0.47788757
H        5.70656303       4.57247911       0.83127367
