15
Properties=species:S:1:pos:R:3 -1474.5063459913288=T 10.437901=T 11.01401=T -8.4375=T -6.4633=T -9.714=T 0.8799=T -0.063=T 0.847=T 9.10666=T -0.19746=T 4.687724681=T 12.4839519624=T 0.203272185=T pbc="F F F"
C        1.04083356      -0.08870401       0.16963912
C        2.53290074       0.05236980       0.02565332
N        3.10497747       1.19660663       0.15845729
C        4.56082542       1.24616591       0.01890623
C        5.22832830      -0.12061163       0.12675010
O        4.52509391      -1.06191624      -0.70103211
N        3.19526641      -1.17380091      -0.15338772
H        0.78290136      -0.86609044       0.90322055
H        0.57647964      -0.36155554      -0.79122459
H        0.63175841       0.87185844       0.49909385
H        4.80226741       1.70919046      -0.95287636
H        4.95856196       1.92217408       0.79526256
H        6.25720934      -0.11875895      -0.25938339
H        5.23054676      -0.48532155       1.16902557
H        2.71336930      -1.82895604      -0.77196443
