19
Properties=species:S:1:pos:R:3 -1812.8461598466567=T 12.572347=T 13.46177=T -9.0157=T -6.7558=T -9.441=T 1.106=T -0.077=T 1.363=T 8.89054=T -0.77744=T 6.6202076728=T 0.439256215=T pbc="F F F"
N        0.92317448       0.00528449      -0.01706194
C        2.38157115      -0.06809708       0.16384608
C        2.99181139       1.33338286       0.36910823
C        2.42941629       2.01036264       1.63451442
N        2.80450481       3.42892249       1.67069464
C        4.49202468       1.24517879       0.43708750
C        5.34984921       1.91031598      -0.34639335
H        0.53090189      -0.93774650      -0.05619367
H        0.71073521       0.43919378      -0.91975088
H        2.91619873      -0.55589270      -0.67491431
H        2.57740549      -0.67898171       1.06214882
H        2.71637491       1.96989555      -0.49169293
H        2.76561190       1.42399307       2.51754613
H        1.33310286       1.93632938       1.59719641
H        3.82116176       3.51746425       1.75432783
H        2.40139792       3.87637355       2.49607230
H        4.89102051       0.58362014       1.21841142
H        4.99691701       2.58301572      -1.13227093
H        6.42994979       1.80478531      -0.22973576
