14
Properties=species:S:1:pos:R:3 -1413.333874006889=T 9.792132=T 10.52544=T -9.2959=T -7.3294=T -10.483=T 0.7989=T -0.4199=T 0.344=T 9.85705=T 0.35095=T 4.3009627526=T 12.3693269054=T 0.141440617=T pbc="F F F"
C        0.95210124       0.01566326       0.16844995
C        2.45191152       0.04744646      -0.08987307
C        3.30811340       1.02577500       0.76422496
N        4.09305984      -0.15626175       1.16882634
O        4.86384658      -0.26358077       2.33702237
C        3.24357610      -1.10346346       0.60423734
O        3.16732983      -2.31027297       0.67010850
H        0.50633709      -0.86815418      -0.30782233
H        0.46101960       0.91092213      -0.23818222
H        0.73411552      -0.03896254       1.24482704
H        2.67957499       0.10868676      -1.16349314
H        2.75106544       1.47818543       1.59886916
H        3.89372759       1.78657967       0.22926122
H        5.78299125      -0.36034303       2.01724388
