17
Properties=species:S:1:pos:R:3 -1650.7805932622437=T 12.037997=T 12.49868=T -8.1027=T -6.2191=T -8.784=T 1.2886=T -0.0938=T 0.747=T 8.08573=T -0.17648=T 4.6666222638=T 5.1462001118=T 0.256257362=T pbc="F F F"
C        1.09845259       0.32211036      -0.14879066
N        2.52591716       0.05575638       0.01999404
N        2.75413443      -1.18836050       0.54341733
C        3.83719864      -1.43488650       1.20242924
C        3.33763336       1.16706143       0.43937334
C        4.67852677       1.37260673      -0.22979405
C        3.53203519       2.30639007      -0.52901838
H        0.95823690       1.14616803      -0.85965521
H        0.60739127       0.58985492       0.80585966
H        0.62789694      -0.58566475      -0.54251797
H        3.96792068      -2.46450398       1.53845570
H        4.62264922      -0.70166992       1.41975600
H        3.27364253       1.42091199       1.50851741
H        4.95044568       0.65444244      -1.00315665
H        5.50476708       1.73587418       0.38218155
H        3.55966539       3.31650693      -0.12050610
H        3.05725618       2.21652221      -1.50618527
