18
Properties=species:S:1:pos:R:3 -1784.3047505698494=T 13.125214=T 15.24212=T -8.6747=T -6.5899=T -9.174=T 0.8863=T -0.0135=T 2.522=T 8.78676=T -2.03106=T 4.1774355008=T 10.2957230484=T 0.711356634=T pbc="F F F"
C        1.15411198      -0.65801890      -0.13061858
C        2.66338637      -0.46584491      -0.21685600
N        3.03485821       0.91964453       0.07580864
C        4.49258422       1.11358681       0.07592219
C        4.87293099       2.43979971       0.55011076
C        5.18818389       3.53801386       0.96531933
C        5.56644705       4.85867680       1.44591141
H        0.87776916      -1.69050694      -0.38590889
H        0.63582313       0.02436974      -0.81840591
H        0.78678900      -0.45848020       0.88809420
H        3.00895343      -0.69395914      -1.24034605
H        3.17413562      -1.19411244       0.45338312
H        2.67473687       1.18165659       0.99839522
H        4.85202746       0.97663847      -0.96016120
H        5.02440916       0.34822828       0.68689533
H        4.68416723       5.50767105       1.54983613
H        6.26041768       5.35136426       0.74893536
H        6.05929854       4.80386243       2.42792496
