15
Properties=species:S:1:pos:R:3 -1635.2539201585098=T 15.288407=T 15.01566=T -8.3284=T -6.4066=T -8.105=T -0.065=T -1.544=T -0.037=T 7.54353=T 0.58109=T 3.4569652534=T 5.7783303342=T 0.503584712=T pbc="F F F"
C        0.98559555       0.00728656      -0.00570419
C        2.49485756      -0.07290672       0.05635513
C        3.15619165      -1.24966722       0.14399215
C        3.19678914       1.16254171       0.01840847
C        3.73600698       2.26213009      -0.01546924
C        4.42997154       3.49223357      -0.05362410
C        3.84626251       4.70793862      -0.11112363
H        0.59551210       0.60388599       0.83180505
H        0.53792365      -0.99389253       0.03416545
H        0.66265600       0.50306354      -0.93289919
H        2.61024369      -2.19338531       0.17341590
H        4.24420060      -1.28624904       0.18796931
H        5.52336472       3.42722140      -0.03373488
H        2.76159886       4.81690950      -0.13143238
H        4.45066546       5.61410984      -0.13813385
