17
Properties=species:S:1:pos:R:3 -1705.3147226016863=T 11.567987=T 12.22979=T -8.2578=T -6.3712=T -9.232=T 0.7937=T -0.1358=T 1.206=T 8.36676=T -0.54872=T 5.0267272022=T 5.8886158812=T 0.154082342=T pbc="F F F"
C        1.14179451      -0.05315561       0.26015693
N        2.49717027      -0.01951734      -0.24042514
C        3.26744546       1.22268600      -0.20649884
C        4.58576444       0.81926876      -0.88320581
C        4.73980177      -0.65890313      -0.49603865
C        3.31933633      -1.14379214      -0.24844240
N        3.02613138      -2.38556227      -0.07376274
H        0.62577487      -0.94719146      -0.11731132
H        0.59362143       0.82641377      -0.10422302
H        1.09521214      -0.06409666       1.36594555
H        3.43429249       1.56480425       0.83574916
H        2.73461547       2.02410650      -0.74170274
H        4.48221321       0.91913254      -1.97360765
H        5.42733423       1.44592719      -0.56168080
H        5.23773760      -1.27629430      -1.25333987
H        5.30483910      -0.77533272       0.44265744
H        2.02826529      -2.51451337       0.13930988
