16
Properties=species:S:1:pos:R:3 -1510.5279722075663=T 10.939237=T 11.29822=T -8.624=T -6.5211=T -9.24=T 1.1368=T -0.1626=T 0.833=T 8.81682=T -0.24915=T 4.954170595=T 11.490154578=T 0.205298326=T pbc="F F F"
C        3.63457793      -1.16191279      -1.00950677
C        3.01910638      -0.32578794       0.11370008
C        3.31032307       1.18259341      -0.01253502
C        4.75433947       1.53016937       0.18221394
N        5.42837888       2.14649352      -0.72159408
N        6.72323559       2.51725277      -0.42353610
H        3.41919036      -2.23151684      -0.87490018
H        4.72696094      -1.03957197      -1.04894926
H        3.23655167      -0.85892585      -1.98995264
H        3.38621164      -0.68477648       1.09109165
H        1.92686911      -0.47043234       0.12874049
H        2.71092428       1.71979823       0.74447262
H        2.99455502       1.55540315      -0.99924618
H        5.22291286       1.24265605       1.14530283
H        7.27296580       2.57007176      -1.27893718
H        7.18600700       1.93548596       0.28720580
