14
Properties=species:S:1:pos:R:3 -1485.9259429477581=T 10.78213=T 11.61578=T -9.3549=T -7.365=T -10.077=T 0.8336=T -0.1991=T 0.474=T 9.63258=T 0.22495=T 4.293883152=T 10.7202759096=T 0.473958218=T pbc="F F F"
C        0.95252758      -0.21379344       0.17501840
C        2.44698405       0.05258239      -0.10438057
C        2.92691582      -0.66705651      -1.27828061
C        3.32377637      -1.24356084      -2.27200089
C        2.70463064       1.58838929      -0.13754933
N        3.35311501       2.05745569      -1.23691769
O        2.33723353       2.29680688       0.79486356
H        0.64613995       0.36645474       1.05348362
H        0.78547676      -1.28135622       0.36352217
H        0.33919385       0.08869767      -0.68421819
H        3.02485817      -0.29438151       0.77088789
H        3.66868655      -1.77549556      -3.13533552
H        3.63463030       1.42613736      -1.98098892
H        3.55517141       3.04981008      -1.29558393
