15
Properties=species:S:1:pos:R:3 -1565.6788589061675=T 11.015198=T 12.27932=T -9.6203=T -7.364=T -9.968=T 0.8981=T -0.032=T 2.157=T 9.55497=T -1.80542=T 4.3699113672=T 10.5279488264=T 0.453123162=T pbc="F F F"
C        3.37433503      -0.96115295      -2.43760738
C        3.48732438      -0.52636180      -1.30978472
C        3.64064606       0.02973261       0.02931075
C        4.41256773       1.35671897       0.03847548
C        3.64509274       2.57568322      -0.51445094
O        3.51345985       3.15472701       0.81853969
C        4.37388223       2.12261752       1.37773527
H        3.26872017      -1.35474435      -3.42799074
H        4.16004393      -0.70162857       0.67210727
H        2.64384464       0.18656330       0.47737338
H        5.41421031       1.21140854      -0.38755269
H        2.66493060       2.36434903      -0.97184836
H        4.22887173       3.22999998      -1.18309458
H        5.34323150       2.53496758       1.70631772
H        3.89382911       1.60114992       2.22338986
