16
Properties=species:S:1:pos:R:3 -1594.595138664294=T 10.151822=T 11.23289=T -9.2267=T -7.1841=T -10.74=T 0.7854=T -0.304=T 0.44=T 9.7662=T 0.2142=T 4.346639195=T 13.2244459488=T 0.148756218=T pbc="F F F"
C        0.93008493      -0.16080231       0.40088842
C        2.45738037      -0.22322234       0.38712913
C        3.11601930       1.07621933      -0.07804846
O        2.86273564       2.18468861       0.80687962
C        4.62235524       0.86787919      -0.35626503
N        5.43386694       1.80647268       0.21203222
O        5.02413053      -0.06953069      -1.04341234
H        0.50363200      -1.10207177       0.77434249
H        0.53616715       0.00656207      -0.61282196
H        0.55935933       0.65464618       1.03848932
H        2.81297095      -1.02386849      -0.27724278
H        2.84474493      -0.46873994       1.39396559
H        2.67784005       1.37529831      -1.04673776
H        2.84526790       1.83047525       1.71483810
H        5.00570167       2.62850387       0.62880429
H        6.41610307       1.81012005      -0.04259086
