16
Properties=species:S:1:pos:R:3 -1539.9671897625467=T 10.613428=T 11.32671=T -9.8048=T -7.5882=T -10.757=T 1.1369=T -0.5704=T 0.304=T 10.257=T 0.32415=T 5.4090256346=T 6.5597025048=T 0.220847107=T pbc="F F F"
C        0.97291293      -0.01920727       0.05313501
C        2.50440122       0.04213756      -0.07782152
C        2.97427179      -0.67859892      -1.35147780
O        4.38869382      -0.75313747      -1.48640744
C        2.97522261       1.46939668       0.00531903
N        3.77705138       1.95472383      -0.86916937
O        4.08926335       3.30921122      -0.59671684
H        0.62679831       0.47384449       0.97238001
H        0.63256029      -1.06397235       0.08321821
H        0.48531850       0.47555175      -0.80002084
H        2.94698773      -0.48471498       0.78968845
H        2.51170239      -0.18633953      -2.22967519
H        2.61094735      -1.71740899      -1.32500002
H        4.68470197       0.17809332      -1.54663523
H        2.62440704       2.09438621       0.84038908
H        4.68622933       3.53449445      -1.33302555
