17
Properties=species:S:1:pos:R:3 -1639.4264028247192=T 10.6107=T 11.95416=T -9.1437=T -7.0228=T -10.73=T 0.9449=T 0.03=T 3.018=T 10.12658=T -2.74544=T 8.5806123118=T 11.340875434=T 0.131174198=T pbc="F F F"
C        3.07230632      -1.18648745      -0.49646240
C        2.46189069       0.04211101       0.18701400
C        3.43589957       1.19189685       0.31829008
N        3.74166801       2.06074070      -0.84752799
C        2.97750501       2.60672649       0.30384822
C        3.65411364       3.69097378       1.10527902
H        2.33834576      -1.99970152      -0.58563563
H        3.93018988      -1.57044285       0.07551717
H        3.43237128      -0.94302634      -1.50693474
H        2.09897818      -0.23622429       1.19178001
H        1.57586560       0.38580399      -0.37557245
H        4.33122984       0.96599350       0.91137697
H        3.09085464       1.83185911      -1.60844216
H        1.89969620       2.74413467       0.15338562
H        4.73076684       3.48885888       1.18768353
H        3.23065342       3.75536897       2.11909011
H        3.53169513       4.67192451       0.62184064
