19
Properties=species:S:1:pos:R:3 -1890.362498415088=T 11.469987=T 12.67511=T -9.1506=T -7.0891=T -11.216=T 0.9196=T 0.0038=T 2.849=T 10.45645=T -2.51869=T 8.9100183166=T 10.446254451=T 0.140802677=T pbc="F F F"
C        1.10739949      -0.12959897       0.16915786
C        2.60284905       0.06224230      -0.09355035
C        2.88212267       0.23484580      -1.58903892
C        3.20967530       1.21149672       0.75577450
C        4.53138509       0.62982664       1.27304913
C        4.15345949      -0.83825981       1.44970524
O        3.30983405      -1.14774543       0.33393722
H        0.92739192      -0.33512732       1.23398309
H        0.71932191      -0.97555340      -0.41566878
H        0.54174767       0.77246475      -0.10954104
H        3.95097026       0.42079100      -1.76674047
H        2.30568198       1.07602433      -2.00209159
H        2.60065717      -0.67869181      -2.13150123
H        2.54432593       1.44697511       1.60140578
H        3.33962766       2.12958716       0.16645271
H        5.32771269       0.72802069       0.51940544
H        4.87709938       1.10157676       2.20339650
H        5.00916608      -1.52897937       1.42397735
H        3.61213222      -0.99087515       2.40618758
