14
Properties=species:S:1:pos:R:3 -1413.3658078485748=T 10.907404=T 10.79241=T -8.5647=T -6.6465=T -9.204=T 0.6923=T -0.9478=T -0.354=T 8.64919=T 1.00489=T 4.2794511816=T 4.8730341566=T 0.334177144=T pbc="F F F"
C        0.94322828      -0.06420526       0.04389395
C        2.44078965      -0.20426068       0.05085088
C        3.08092987      -1.38414444       0.14310233
N        3.16062061       0.99751454      -0.04727490
O        4.55192903       0.89602769      -0.04452756
C        2.70735577       2.28235300      -0.14751265
O        3.51108019       3.22208925      -0.22527286
H        0.58120553       0.53949631       0.88933240
H        0.49722079      -1.06137965       0.12597149
H        0.57615271       0.39589104      -0.88554692
H        2.49708520      -2.29865997       0.21765503
H        4.16516675      -1.45120832       0.14504090
H        4.77799875       1.86725693      -0.12251480
H        1.61161687       2.38821956      -0.15159728
