14
Properties=species:S:1:pos:R:3 -1478.6244459033244=T 13.254567=T 13.51992=T -7.6142=T -5.8289=T -8.087=T 0.9254=T -0.2179=T 0.333=T 7.43831=T 0.20171=T 4.2916762012=T 5.9583828034=T 0.362064264=T pbc="F F F"
C        0.95380273      -0.00857756       0.03048245
C        2.45371820       0.04559559       0.01179961
C        3.20466626       1.19729985      -0.03722918
S        4.90481268       0.88264537      -0.02106259
C        4.63288162      -0.83037564       0.03704202
C        3.28556913      -1.13072903       0.05355685
N        2.73631184      -2.41956975       0.18616617
H        0.52032139       0.99936251       0.01497325
H        0.58492687      -0.52357538       0.93171496
H        0.55280179      -0.55022471      -0.84302071
H        2.84646602       2.22250221      -0.07487367
H        5.47738177      -1.51282841       0.06530072
H        1.85670219      -2.53619813      -0.31475719
H        3.38134750      -3.16402692      -0.06961267
