15
Properties=species:S:1:pos:R:3 -1512.351591672358=T 10.278164=T 11.1192=T -9.3876=T -7.2135=T -10.618=T 0.8164=T -0.1868=T 0.657=T 9.67029=T 0.04398=T 4.4262506056=T 11.6320813522=T 0.153170983=T pbc="F F F"
N        1.87711724      -0.42459024      -1.22347257
C        2.19543584       0.12415327       0.10489771
C        3.22055293       1.24300728      -0.01558196
C        2.74877824       2.57419077      -0.66722970
N        3.02942643       3.22848656       0.62366254
C        3.45320621       2.08713204       1.27113846
O        3.83501862       1.86766841       2.40477579
H        1.11634643      -1.10320659      -1.14412142
H        2.68212388      -0.94385572      -1.58504470
H        2.57708398      -0.61771476       0.83239541
H        1.26526711       0.53576230       0.53065456
H        4.16842413       0.86839193      -0.43307417
H        1.68820809       2.57873292      -0.95711569
H        3.36920509       2.93994733      -1.49797203
H        2.93267580       4.19044452       0.94547777
