18
Properties=species:S:1:pos:R:3 -1693.3503382300958=T 10.551097=T 11.53195=T -9.1744=T -7.0428=T -10.2=T 0.8017=T -0.1785=T 2.76=T 9.44865=T -2.47087=T 7.811861916=T 12.7324075078=T 0.079707312=T pbc="F F F"
C        2.46609648      -0.78111553      -0.00070034
N        3.41432161       0.06258585       0.72537627
C        3.53735164       1.43559635       0.20349868
C        2.54606282       2.31468677       0.99199447
O        2.74498204       2.10998772       2.39711718
C        4.97617001       1.95178856       0.34221114
O        5.49422818       1.87882511       1.66816421
H        2.46356325      -1.78905601       0.43575820
H        2.68496049      -0.86754463      -1.08409928
H        1.44825177      -0.37707061       0.10399546
H        4.33577455      -0.37576530       0.76781606
H        3.28105605       1.48637299      -0.87606790
H        1.50400220       2.07278454       0.70918051
H        2.71254881       3.38192489       0.78289791
H        2.84424594       1.12764366       2.44757069
H        5.00632249       2.98961043      -0.04641776
H        5.64975263       1.34767533      -0.28886662
H        4.76964905       2.18117988       2.25802112
