15
Properties=species:S:1:pos:R:3 -1553.6293401363168=T 9.969991=T 11.03027=T -9.608=T -7.4886=T -10.554=T 0.7976=T -1.0545=T 0.111=T 9.82824=T 0.66071=T 3.7267587894=T 11.7940690612=T 0.139333936=T pbc="F F F"
C        1.02946301       0.06291593       0.21359822
C        2.50515280      -0.05214836      -0.14144787
C        2.76757636      -0.08465149      -1.64056140
O        3.31102470       0.99500653       0.53060542
C        4.07188407       0.03762550       1.31495257
C        3.28706695      -1.10427977       0.67385808
O        3.27157958      -2.30756344       0.75831813
H        0.88451806       0.09563601       1.30136670
H        0.47412504      -0.79530110      -0.18959189
H        0.61540520       0.98457737      -0.22000058
H        3.84226816      -0.15492852      -1.85375178
H        2.38088472       0.83440417      -2.10391906
H        2.26158966      -0.94737132      -2.09575844
H        5.15135110       0.05035727       1.08613762
H        3.92554058       0.15434122       2.40242427
