17
Properties=species:S:1:pos:R:3 -1624.9838824512638=T 10.730983=T 11.64244=T -8.9128=T -6.7355=T -10.236=T 0.7774=T -0.2907=T 2.782=T 9.76476=T -2.53801=T 8.1021999322=T 13.101166669=T 0.064214092=T pbc="F F F"
N        0.91961565       0.02877431       0.10363002
C        2.37648694       0.02727985       0.00993240
C        3.14658119       1.05721169       0.88197860
C        4.18713667      -0.03751167       1.24007730
N        5.40918331       0.06462651       0.44389754
C        3.11376013      -1.09206186       0.78797062
O        3.52504022      -2.27372927       0.12476196
H        0.54664026      -0.80168712      -0.36585672
H        0.53304916       0.83404141      -0.39687879
H        2.76280115       0.05459160      -1.03160231
H        2.54539640       1.35297843       1.75262778
H        3.54281183       1.95439823       0.38733277
H        4.48310652      -0.10100552       2.29686457
H        5.21614684       0.19185799      -0.55226998
H        5.99549118      -0.76633757       0.55393788
H        2.49625926      -1.40747461       1.64303195
H        4.23922328      -2.01682239      -0.49014559
