15
Properties=species:S:1:pos:R:3 -1609.2032659984625=T 12.660091=T 13.0289=T -9.077=T -7.2734=T -9.817=T -0.632=T -2.2162=T -0.809=T 9.02854=T 1.59666=T 3.330573925=T 5.0460070252=T 0.603368916=T pbc="F F F"
C        0.37693782       0.42509110      -0.08208162
C        1.80537580       0.07508293       0.15009809
C        2.85016872       0.91485403       0.02768349
C        4.24517404       0.46836499       0.28187118
O        4.52392799      -0.68721777       0.61312924
C        5.30104387       1.51495128       0.10982449
C        6.59917737       1.24266929       0.30448131
H       -0.05552076      -0.21732078      -0.86635145
H        0.24557129       1.47481717      -0.37628118
H       -0.21953305       0.23632245       0.82534313
H        2.03520241      -0.95504675       0.44694475
H        2.69272867       1.95797227      -0.26516292
H        4.97644274       2.51783055      -0.18265025
H        6.90105692       0.23402476       0.59593692
H        7.37204616       2.00150447       0.18029482
