18
Properties=species:S:1:pos:R:3 -1751.114081138363=T 11.995568=T 13.11252=T -9.4787=T -7.236=T -9.444=T 0.7767=T -0.2398=T 1.435=T 8.90127=T -0.87539=T 6.6788406522=T 0.463950125=T pbc="F F F"
N        1.05763719      -0.08598130       0.16363623
C        2.51063071      -0.07905478      -0.08270395
C        3.00997315       1.37138383      -0.01306434
O        2.52357987       1.97911598       1.18281581
C        4.53921380       1.45556619      -0.03200827
C        5.05423070       2.86580819      -0.04654243
C        5.87207201       3.36870980      -0.97834523
H        0.73804270      -1.01149786       0.45151561
H        0.54566820       0.15431331      -0.68874532
H        2.81115556      -0.53450242      -1.04522297
H        2.99068502      -0.65009890       0.72788698
H        2.61864279       1.91981631      -0.89840084
H        1.63263980       1.57821248       1.29702084
H        4.92057663       0.90818036      -0.91004869
H        4.90585742       0.93764304       0.87285531
H        4.71093430       3.50212308       0.77522185
H        6.23015100       2.75848051      -1.81261874
H        6.21543915       4.40365217      -0.93924186
