15
Properties=species:S:1:pos:R:3 -1514.6453467954866=T 10.31396=T 11.3312=T -9.1962=T -7.1834=T -10.656=T 0.8133=T -0.1252=T 0.464=T 9.6422=T 0.17857=T 4.3394604056=T 12.0160783928=T 0.281218028=T pbc="F F F"
C        0.89140492      -0.07018763      -0.45715750
C        2.17533434       0.55619069       0.02499321
N        3.43727518      -0.20805748       0.03501122
C        3.26639454       0.89572101      -0.94317355
C        4.12748145       2.12195611      -0.76045217
N        4.86431671       2.11229562       0.39032110
O        4.11113533       3.04479790      -1.57483077
H        0.15316569       0.70424282      -0.71133193
H        0.45156516      -0.71205642       0.32078134
H        1.06009682      -0.68346991      -1.35512573
H        2.07837796       1.21211443       0.89658383
H        3.30616677      -1.10997981      -0.43550954
H        3.07809703       0.65927067      -1.99320401
H        4.94004703       1.23278519       0.89824665
H        5.52934106       2.86186682       0.54513785
