14
Properties=species:S:1:pos:R:3 -1488.2896823223025=T 10.142338=T 11.34237=T -10.407=T -8.2228=T -11.401=T 0.8712=T -0.2445=T 1.311=T 11.07936=T -0.90614=T 5.3346092374=T 12.5287729014=T 0.287324777=T pbc="F F F"
O        0.95226825      -0.01491063       0.08552551
C        2.36076004      -0.01768432       0.04044214
C        3.04378178       1.05692911       0.90448952
C        4.14182600       0.02190517       1.26658800
C        3.14097615      -1.10834983       0.86817297
C        3.61969439      -2.28815877       0.17892265
N        3.99406264      -3.21587694      -0.42476213
H        0.61528808      -0.59957961      -0.61598677
H        2.74030859      -0.00200460      -0.99550406
H        2.40902471       1.28768883       1.77190122
H        3.34287899       1.98970575       0.41219515
H        4.99460726       0.05709759       0.57687820
H        4.51009369       0.00121493       2.29827796
H        2.52154941      -1.39892668       1.73014965
