18
Properties=species:S:1:pos:R:3 -1745.5410716685253=T 11.334216=T 12.80454=T -9.3669=T -7.0683=T -10.67=T 0.841=T -0.1461=T 3.064=T 10.11699=T -2.74676=T 8.6223707966=T 10.5320899588=T 0.235744796=T pbc="F F F"
C        0.99850385      -0.05136534       0.11980648
C        2.50606244      -0.04619620       0.00412684
C        3.19985848      -0.62871098      -1.20218678
O        2.38350440      -1.19429119      -2.20697584
C        3.20925039       0.87061390      -0.98320908
C        4.48567231       1.59227967      -0.61956035
N        5.25293052       1.93631357      -1.82907616
H        0.64938140       0.79278999       0.73282584
H        0.64341112      -0.98104118       0.58924455
H        0.52777844       0.01967932      -0.86906306
H        3.03897233      -0.20750964       0.94646227
H        4.13492338      -1.17413722      -1.01799729
H        2.75039606      -0.92960279      -3.06826667
H        2.54383795       1.42395000      -1.65312947
H        5.04730576       0.97527443       0.11314668
H        4.23596804       2.53564366      -0.10526187
H        5.60038573       1.07892399      -2.26759941
H        6.08035739       2.48112601      -1.57483668
