19
Properties=species:S:1:pos:R:3 -1925.4081170104603=T 12.960798=T 14.26564=T -8.5584=T -6.5374=T -8.596=T 0.9327=T 0.0613=T 1.509=T 8.02043=T -0.79949=T 5.9610361038=T 0.372418803=T pbc="F F F"
C        0.86151559      -0.15040021       0.03624083
C        2.34981810       0.02593630       0.08198752
C        3.05697326       1.16731777      -0.02862227
C        2.45347148       2.53965091      -0.19213435
C        4.55382605       1.17282523       0.01012815
C        5.40221800      -0.01358256      -0.36769400
C        5.35315048       1.18871327      -1.28330804
H        0.57622432      -0.85734332      -0.76047439
H        0.31772041       0.78650483      -0.14013908
H        0.48856877      -0.58313792       0.97930015
H        2.91853612      -0.89893844       0.22688548
H        1.35723709       2.53379252      -0.19381512
H        2.79721862       3.00387511      -1.13081188
H        2.78584078       3.20446482       0.62257625
H        4.97118713       1.81311606       0.79585050
H        4.90056505      -0.91898019      -0.71025359
H        6.31325470      -0.19169969       0.20446007
H        6.22797007       1.83685100      -1.34766045
H        4.79035398       1.08039451      -2.21212576
