12
Properties=species:S:1:pos:R:3 -1158.5205873921286=T 10.619061=T 12.16743=T -10.1983=T -8.1666=T -10.903=T 0.9187=T -0.9194=T -0.832=T 10.20219=T 1.34507=T 4.4639547482=T 11.0357086922=T 0.240557473=T pbc="F F F"
C        1.45837415      -0.17415857       0.28667184
N        2.20233828       0.43764872      -0.82107787
S        2.89006690       1.94345899      -0.58888712
O        2.99852202       2.55257870      -1.91136316
O        2.28250746       2.62860674       0.54920601
C        4.47841744       1.49733677      -0.07911921
C        5.60884017       1.26099803       0.29543476
H        1.13010724      -1.16795062      -0.04195788
H        0.58924348       0.41912457       0.60434989
H        2.13092589      -0.30658801       1.14387145
H        1.74274304       0.43616848      -1.73324361
H        6.60674394       1.04296622       0.62072492
