15
Properties=species:S:1:pos:R:3 -1515.9685215493637=T 10.295431=T 10.84276=T -8.6388=T -6.3955=T -8.632=T 0.8932=T -0.0266=T 1.488=T 8.14505=T -0.83081=T 5.857470598=T 0.276302529=T pbc="F F F"
C        0.97391362       0.02647547       0.03030075
C        2.46480048      -0.03279253      -0.04660760
C        3.25854859      -1.11222902      -0.11330056
C        4.71356519      -0.71743938      -0.08589463
N        4.71667372       0.76425194      -0.20318849
C        3.32434125       1.21431419       0.02993051
H        0.52375524      -0.97470230       0.00690147
H        0.55340976       0.61262565      -0.80324451
H        0.64855604       0.52568867       0.95819685
H        2.91738910      -2.14889980      -0.11819692
H        5.18565250      -1.03371267       0.86547798
H        5.30854449      -1.17461940      -0.89390272
H        4.96967265       1.00263040      -1.16207768
H        3.02915692       1.98545677      -0.70187018
H        3.22157046       1.68043201       1.03106571
