15
Properties=species:S:1:pos:R:3 -1545.432621750324=T 10.432845=T 11.18146=T -9.204=T -7.1792=T -9.95=T 1.2978=T -0.3219=T 0.857=T 9.46315=T -0.23529=T 4.8704552478=T 6.3527698708=T 0.172094825=T pbc="F F F"
C        0.94529905      -0.09978770       0.10936266
C        2.43461123       0.20066960      -0.05340588
N        2.84563880       1.38524095       0.74225345
C        3.89282805       1.05322332       1.39905668
N        4.44319056      -0.26382744       1.23752426
C        3.49476938      -1.26872412       1.81707415
C        3.40457429      -0.90668950       0.37844670
H        0.65136138      -0.95104947      -0.52065645
H        0.34907843       0.77358482      -0.18565343
H        0.70296973      -0.34197983       1.15371562
H        2.62619517       0.44252328      -1.11419672
H        4.41426318       1.73831598       2.07335628
H        3.96136976      -2.21164729       2.10762626
H        2.73261487      -0.88696811       2.50104934
H        3.78323612      -1.60846448      -0.36681293
