16
Properties=species:S:1:pos:R:3 -1519.3497763232444=T 9.529746=T 10.62711=T -9.9549=T -7.7133=T -11.754=T 0.9646=T 0.0051=T 3.105=T 11.05112=T -2.88602=T 9.385802193=T 12.5836615036=T 0.124383767=T pbc="F F F"
C        1.04322773      -0.01158051       0.09059207
C        2.55704389      -0.09042385       0.04060599
O        3.08507492       1.23484496      -0.04146827
C        4.51233312       1.25803377      -0.05778826
C        4.94275585       2.71320479      -0.02767383
O        4.50906468       3.37828807       1.15855059
H        0.61341069      -1.02184571       0.13536839
H        0.65110366       0.49289947      -0.80323511
H        0.71087275       0.54506566       0.97782546
H        2.89040568      -0.67701527      -0.83893925
H        2.95539813      -0.59462143       0.94366991
H        4.90105524       0.76151819      -0.96996648
H        4.91088450       0.72616371       0.82862206
H        4.56041929       3.22383800      -0.93200831
H        6.04110591       2.77148139      -0.04039248
H        3.55201395       3.20296875       1.22478750
