20
Properties=species:S:1:pos:R:3 -1955.6171017451327=T 12.283616=T 13.5882=T -8.5563=T -6.4888=T -10.053=T 0.9335=T 0.0024=T 3.159=T 9.29377=T -2.86=T 8.182766035=T 11.9947651994=T 0.131299997=T pbc="F F F"
C        2.31532461      -0.38665302      -1.55385706
C        2.36703174       0.13556782      -0.11647131
C        3.14111742       1.44559209       0.02968617
C        2.49714541       2.67204737      -0.65710030
C        2.87460478       3.88113438       0.24321206
C        3.71727782       3.26323347       1.37605010
N        3.21748057       1.88465712       1.43358094
H        1.77306728      -1.34114817      -1.60953860
H        3.32717071      -0.55508280      -1.95434006
H        1.80670960       0.32243442      -2.22397696
H        2.83398743      -0.62663438       0.53114403
H        1.34835032       0.29383138       0.27524624
H        4.15967972       1.30184845      -0.40421576
H        1.40432241       2.54431088      -0.69469250
H        2.85228729       2.78965880      -1.69002670
H        3.43368899       4.65557898      -0.29965437
H        1.97037189       4.35209325       0.65313334
H        4.79636807       3.31913409       1.11240307
H        3.57896610       3.77114706       2.34212240
H        3.83381785       1.27880879       1.98046528
