19
Properties=species:S:1:pos:R:3 -1803.1632425816606=T 12.141439=T 13.52158=T -8.8881=T -6.7589=T -10.389=T 1.0005=T 0.0708=T 3.123=T 9.75708=T -2.79152=T 8.4583621158=T 11.6703434318=T 0.163772992=T pbc="F F F"
C        0.94884677      -0.45351365      -0.01432910
N        2.37996149      -0.59777842      -0.26639146
C        2.78629158      -0.44532970      -1.66938212
C        3.08721447       0.62580510      -0.67174072
C        4.47098688       0.85599695      -0.11285487
C        4.44751122       1.45171766       1.29628466
N        5.81809929       1.69984857       1.77299851
H        0.79314560      -0.15035363       1.03169338
H        0.45345823      -1.42365345      -0.16817802
H        0.45938000       0.29505263      -0.67141745
H        2.00367294      -0.23905489      -2.40810338
H        3.58122066      -1.11550664      -2.00760180
H        2.46317332       1.52703600      -0.76064698
H        5.03741992       1.52962888      -0.77718196
H        5.00677112      -0.10818172      -0.09521373
H        3.85261765       0.78356299       1.95091950
H        3.92449241       2.42286301       1.26893957
H        6.30426304       0.80608893       1.89082916
H        5.79048341       2.12763136       2.70148681
