17
Properties=species:S:1:pos:R:3 -1688.0944003314576=T 11.640162=T 12.14825=T -8.5757=T -6.4741=T -9.095=T 0.8814=T -0.1987=T 1.386=T 8.58663=T -0.7464=T 6.2374628908=T 0.339888172=T pbc="F F F"
N        0.98971625      -0.00681186       0.39924383
C        2.43674839       0.04039857       0.11309116
C        2.75887182       1.29158880      -0.72482080
N        4.10695795       1.28774010      -1.29771813
C        4.32993814       0.12375253      -2.16558278
C        3.68922626      -1.15600267      -1.69233186
C        2.83846905      -1.19417229      -0.65842235
H        0.73402325       0.77772091       1.00561891
H        0.76981475      -0.85467294       0.92950123
H        3.04925833       0.08434547       1.04325785
H        2.02509630       1.34339763      -1.54661123
H        2.63639263       2.20410542      -0.11890030
H        4.79114388       1.26536500      -0.53690035
H        5.41714482      -0.01506641      -2.28426066
H        3.95059488       0.35726324      -3.18017622
H        3.92206502      -2.06900024      -2.24921926
H        2.38986829      -2.14356127      -0.34778905
