13
Properties=species:S:1:pos:R:3 -1370.513456511065=T 10.326563=T 11.71878=T -10.0381=T -7.782=T -9.973=T 0.9623=T -0.2425=T 1.867=T 9.59748=T -1.47743=T 4.3643939902=T 10.4819748176=T 0.462070992=T pbc="F F F"
O        2.92880531      -1.10594994      -0.40843894
C        2.28318738       0.06980085       0.08911503
C        3.33625721       1.12651916       0.28333007
O        3.64999706       1.97557112      -0.83329793
C        2.96808010       2.56277868       0.30541836
C        3.68885080       3.51525128       1.10692540
C        4.26640156       4.33416924       1.79187963
H        2.25342789      -1.79452891      -0.52622090
H        1.79716916      -0.12377106       1.06520060
H        1.52083585       0.44739249      -0.61639643
H        4.20925156       0.81689997       0.87003798
H        1.92103568       2.82337634       0.10645564
H        4.78636044       5.05606078       2.38799149
