16
Properties=species:S:1:pos:R:3 -1615.8087321902794=T 11.055455=T 11.84772=T -8.9538=T -6.6708=T -8.819=T 0.8552=T -0.2595=T 1.352=T 8.31674=T -0.69205=T 5.9296428486=T 0.315886967=T pbc="F F F"
N        2.36586147      -0.49790898       1.48814728
C        2.51045256      -0.01077451       0.09998678
C        3.06682206       1.38139926       0.05595204
C        4.18436420       1.81276294      -0.54118358
C        4.33161214       3.29319967      -0.37261480
O        3.18218344       3.70576987       0.39256226
C        2.36675157       2.55908342       0.68356482
H        2.03203091      -1.46452209       1.47096378
H        1.64093843       0.03753434       1.97282923
H        1.55773131      -0.02142268      -0.47296787
H        3.20230045      -0.68747276      -0.42325555
H        4.90259233       1.19467997      -1.08024958
H        5.25493818       3.56888912       0.17343084
H        4.34467847       3.83405035      -1.33918873
H        1.34987407       2.70795150       0.26611370
H        2.26607842       2.45251058       1.78166937
