18
Properties=species:S:1:pos:R:3 -1734.3386069631329=T 11.039123=T 12.10114=T -8.8119=T -6.686=T -10.117=T 0.8315=T -0.1217=T 2.808=T 9.36208=T -2.49438=T 7.73796626=T 10.9410081854=T 0.104868686=T pbc="F F F"
C        1.69421982      -0.61997403      -1.10211896
N        2.23168187      -0.01404740       0.11744388
C        3.07338863       1.16609922      -0.09705223
C        4.32452543       0.94787196      -0.95480432
C        2.28163123       2.44156870      -0.48582843
O        2.83365691       3.17951964       0.64266866
C        3.36872728       1.94777338       1.20612848
H        1.04024088      -1.45842642      -0.82480778
H        2.44948056      -0.99764137      -1.81953968
H        1.07030726       0.11814087      -1.62964487
H        2.77088421      -0.71537881       0.63353999
H        4.89718559       1.88197584      -1.04846794
H        4.06681011       0.61104618      -1.96954754
H        4.98162638       0.19079548      -0.49848633
H        1.18866400       2.31991255      -0.39438718
H        2.53588747       2.91804294      -1.44606877
H        4.42631170       2.05638162       1.49647771
H        2.76660069       1.59632965       2.06164529
