13
Properties=species:S:1:pos:R:3 -1272.465212314449=T 10.64487=T 12.03539=T -10.4407=T -8.4235=T -10.788=T 0.4608=T -1.2646=T -0.255=T 10.37179=T 0.92854=T 5.1944802602=T 6.425760429=T 0.314270952=T pbc="F F F"
C        0.99282287       0.04638108       0.16792724
C        2.47851975       0.18428518       0.20446632
C        3.17644486       1.08132206      -0.50092777
S        4.94150589       1.11196175      -0.44072820
O        5.21907703       2.61833818       0.20067368
O        5.42610091       0.12595153       0.52750041
O        5.43828694       1.20043913      -1.80665446
H        0.71322216      -0.96607627      -0.16224606
H        0.52101840       0.77687425      -0.50115761
H        0.57247389       0.16893034       1.17837850
H        3.03635677      -0.50333668       0.84813811
H        2.75030018       1.80838783      -1.19404061
H        5.34081033       2.48034162       1.16254045
