16
Properties=species:S:1:pos:R:3 -1514.858238144015=T 10.167425=T 10.94629=T -9.0818=T -6.8624=T -10.19=T 0.8212=T -0.2026=T 3.156=T 9.63901=T -3.52876=T 8.2035832844=T 11.3243481002=T 0.292484172=T pbc="F F F"
N        2.52752941      -1.24769088      -0.32042376
C        2.02592982       0.02332361       0.23231155
C        3.11497999       1.08730402       0.25602856
N        4.32484258       0.80111192       1.00603516
C        3.31465687       1.93338311      -0.97617408
C        2.67462696       2.53246668       0.25979793
H        1.74422210      -1.87878114      -0.50089190
H        3.10822381      -1.72098338       0.37703349
H        1.60857121      -0.07260331       1.25827068
H        1.20231748       0.36816963      -0.41256267
H        4.10068160       0.57568026       1.97992446
H        4.80172252      -0.00966418       0.60178376
H        2.68379987       1.72588890      -1.84103648
H        4.33643434       2.23540501      -1.20498256
H        3.27569837       3.22469196       0.84933457
H        1.60422307       2.74514777       0.23831129
