14
Properties=species:S:1:pos:R:3 -1454.2076438342997=T 11.048092=T 11.87878=T -8.9169=T -6.7911=T -10.063=T -0.2005=T -2.0241=T -0.658=T 9.7231=T 1.26394=T 3.5362543004=T 11.9109506634=T 0.331292552=T pbc="F F F"
C        2.60657664      -1.04289694      -0.94204796
N        2.48527725      -0.02375276       0.10728257
C        3.11533955       1.23166238      -0.23607237
C        4.65069958       1.25088485      -0.14861975
O        5.29041429       0.34774951       0.37856799
C        5.29181847       2.43663763      -0.68601466
C        5.76375560       3.45138147      -1.16274876
H        2.13734767      -1.97188028      -0.59121618
H        3.64611919      -1.27257155      -1.24270507
H        2.05251532      -0.70892096      -1.83265766
H        2.91694545      -0.37913608       0.96490483
H        2.76704887       2.03648306       0.43952429
H        2.81094252       1.54685249      -1.24791743
H        6.21136960       4.33477718      -1.57319985
