21
Properties=species:S:1:pos:R:3 -2068.789944290586=T 13.236399=T 14.26933=T -9.1655=T -7.0237=T -9.1=T 0.8677=T -0.0206=T 1.468=T 8.43727=T -0.80085=T 6.369222813=T 0.404700604=T pbc="F F F"
C        2.51050577      -0.85845409       1.26028949
C        2.50050977      -0.07123184      -0.02966734
C        1.90242925      -0.58696667      -1.11646672
C        3.19230714       1.30158043      -0.02583449
C        3.01349462       2.04510888      -1.35999589
C        2.60629441       2.18336885       1.10097317
C        4.70785971       1.11162797       0.22090754
H        3.53068251      -1.00979949       1.64486347
H        2.05670132      -1.84728834       1.11427582
H        1.94556615      -0.34450612       2.05331030
H        1.43329100      -1.57230019      -1.07841527
H        1.85510496      -0.06252327      -2.07001433
H        3.45891984       1.48954801      -2.19804459
H        3.51160364       3.02466117      -1.30858966
H        1.95120429       2.21884568      -1.58620282
H        2.78115604       1.75128701       2.09615906
H        1.52220132       2.32021074       0.97147739
H        3.07889410       3.17717949       1.08443671
H        4.91204733       0.64274486       1.19368250
H        5.21661616       2.08771569       0.21111237
H        5.15651067       0.48416124      -0.56323669
