11
Properties=species:S:1:pos:R:3 -1310.9106740592158=T 9.56754=T 9.62267=T -9.5903=T -7.604=T -11.082=T -1.1453=T -2.9618=T -2.004=T 10.66871=T 2.22939=T 3.1725041736=T 5.2011011126=T 0.503113731=T pbc="F F F"
O        1.08905796       0.02485085      -0.48060288
C        2.26506591       0.00432835      -0.15622822
C        3.14547905      -1.22739340       0.04128991
C        4.49916408      -0.65120609       0.44962990
O        5.51346420      -1.27338810       0.71930380
C        4.36317663       0.83594927       0.46371667
C        3.10958748       1.20376459       0.12382704
H        3.22368571      -1.81617463      -0.88413347
H        2.73988491      -1.89419507       0.81547139
H        5.20064829       1.48395427       0.72308962
H        2.70932576       2.21495995       0.04758623
