13
Properties=species:S:1:pos:R:3 -1333.579738174949=T 10.057503=T 10.80365=T -8.8983=T -6.7163=T -9.716=T 0.8506=T -0.1829=T 2.284=T 9.34522=T -1.8555=T 4.344221468=T 10.5416492794=T 0.617833368=T pbc="F F F"
C        0.88677371      -0.02313369       0.06299247
C        2.10081987      -0.00639517       0.01205005
C        3.54838691       0.01079427      -0.00043141
C        4.30813981       1.04830913       0.88698238
N        5.21270991      -0.01878623       1.42411892
C        4.33212332      -1.06709956       0.81503970
H       -0.18335985      -0.03779754       0.09524042
H        3.91528544       0.05025813      -1.03844642
H        3.67332453       1.46528871       1.68333326
H        4.80346248       1.87125544       0.35306513
H        6.10736821       0.00816726       0.92933218
H        4.84550277      -1.84052110       0.22688803
H        3.70746288      -1.55144964       1.58071527
