13
Properties=species:S:1:pos:R:3 -1386.8067360210177=T 9.888048=T 10.42853=T -8.9035=T -6.9606=T -9.641=T 0.7802=T -0.9284=T -0.003=T 9.13717=T 0.61365=T 4.399767196=T 5.089935265=T 0.170027239=T pbc="F F F"
C        1.02666756      -0.04630083       0.09080292
C        2.50951585       0.02979643      -0.01750874
N        3.24386889      -1.03802760      -0.11165150
N        4.56875768      -0.62287680      -0.19327027
C        4.76023946       0.74770240      -0.15718349
O        5.82572328       1.34337186      -0.21448151
C        3.32928118       1.28979038      -0.03124059
H        0.70117051      -1.09304467       0.06000273
H        0.54089791       0.50228263      -0.73118183
H        0.67510053       0.40748085       1.03072722
H        5.30037560      -1.32220318      -0.27481781
H        3.09355540       1.95327418      -0.87682316
H        3.22393614       1.88844433       0.88594603
