13
Properties=species:S:1:pos:R:3 -1349.5754268738451=T 12.590574=T 12.76295=T -7.8347=T -6.1081=T -9.063=T 0.8449=T -0.7372=T -0.143=T 8.32546=T 0.65789=T 4.754677121=T 10.4710144552=T 0.283219449=T pbc="F F F"
C        3.13738971      -1.21170622       0.39619347
N        2.54880764      -0.03048838      -0.21552755
C        3.16648539       1.20366488      -0.12390051
N        2.43412883       2.30860755      -0.29398970
S        3.44715905       3.64465529      -0.21892679
C        4.87993401       2.73669240       0.06752973
C        4.57244994       1.39814250       0.09693464
H        2.46706833      -2.06315103       0.22766554
H        3.30732707      -1.10834498       1.48366489
H        4.09661879      -1.45416109      -0.08422557
H        1.53507865       0.03877026      -0.16616282
H        5.85068632       3.20910588       0.19484647
H        5.29866628       0.60503293       0.25964820
