15
Properties=species:S:1:pos:R:3 -1463.812285075237=T 11.820197=T 11.56198=T -8.2551=T -6.3758=T -8.793=T 0.7241=T -0.4518=T 0.498=T 8.10717=T 0.00427999999999=T 4.9596755734=T 5.26878507=T 0.427064116=T pbc="F F F"
C        0.87976435      -0.39498336       0.34918708
C        2.30697304      -0.17107845      -0.07627701
C        3.18572782      -1.18264396      -0.22766748
N        2.66063206       1.16546127      -0.33735051
O        3.99168344       1.39722726      -0.72077428
C        1.92962762       2.31498249      -0.03680760
N        2.29550893       3.53723608      -0.15126928
H        0.66572562       0.06952193       1.32327488
H        0.70464615      -1.47223277       0.44378057
H        0.16272293       0.00716272      -0.38171734
H        2.85655954      -2.20230061      -0.04252714
H        4.22404374      -1.01408614      -0.50039815
H        3.99604237       1.25244898      -1.69080665
H        0.92370011       2.07899995       0.32319159
H        3.27143226       3.58408461      -0.47821868
