12
Properties=species:S:1:pos:R:3 -1326.984364089798=T 9.207499=T 9.67714=T -8.4529=T -6.4319=T -9.07=T 0.7248=T -0.1645=T 0.238=T 8.67109=T 0.39033=T 4.7776021324=T 12.4381143382=T 0.172958981=T pbc="F F F"
C        0.96883130      -0.00194328      -0.00866610
N        2.42178354       0.02722602       0.00062514
C        3.26222215       1.14211224       0.00183061
C        4.52732016       0.67736801       0.00785014
O        4.52054695      -0.70640253       0.01000379
C        3.18321505      -1.12952655       0.00467363
O        2.82236237      -2.28863613       0.00421003
H        0.59339737       1.02651703       0.00989327
H        0.59338052      -0.54209788       0.87081952
H        0.60147945      -0.50705345      -0.91235321
H        2.88427523       2.15761077      -0.00095487
H        5.49205591       1.16768576       0.01157803
