19
Properties=species:S:1:pos:R:3 -1802.0187699909586=T 13.033008=T 13.7006=T -8.3236=T -6.3256=T -9.059=T 1.506=T -0.1724=T 0.685=T 8.47945=T -0.16452=T 4.801481836=T 5.3509133964=T 0.39009415=T pbc="F F F"
C        0.57669265      -1.09964497       0.17618117
C        2.08329377      -0.94050330      -0.05284634
C        2.60188210      -1.93971852      -1.09296487
C        2.44597315       0.49057293      -0.47550247
N        2.13792292       1.46038180       0.57275885
N        2.02218682       2.75097440       0.17069375
C        2.23403707       3.69122112       1.02539312
H        0.20221568      -0.35538670       0.89185647
H        0.33870904      -2.10234193       0.56014183
H        0.02684786      -0.96255799      -0.76889854
H        2.60339081      -1.14929167       0.90236166
H        2.11904456      -1.77362370      -2.06939601
H        2.38484755      -2.97333519      -0.78776409
H        3.68910126      -1.85030461      -1.23610877
H        1.85958007       0.78928384      -1.35810487
H        3.51507973       0.53312886      -0.76460955
H        2.66707361       1.31905039       1.44479393
H        2.07022671       4.71790476       0.69834133
H        2.55510464       3.50542048       2.06415339
