15
Properties=species:S:1:pos:R:3 -1524.1471669844648=T 10.529218=T 11.62418=T -9.1052=T -6.9297=T -9.66=T 1.0081=T 0.133=T 1.049=T 9.20195=T -0.56682=T 6.4435896158=T 0.366251824=T pbc="F F F"
C        4.45530982       3.64733007       1.43469069
C        5.70800551       3.72107877       0.96100843
O        6.25255748       3.04832714      -0.09468604
C        5.37043089       2.16336025      -0.79929082
C        6.14948528       1.55429282      -1.93758426
C        6.80081078       0.24310228      -1.80043008
O        5.55373444       0.37813538      -2.51523181
H        4.18955050       4.25959629       2.29374112
H        3.68405588       3.00784414       1.01020808
H        6.46298565       4.37048130       1.40897562
H        4.50481563       2.73117111      -1.18504834
H        4.99708629       1.37072111      -0.12761266
H        6.55857649       2.26566395      -2.66470755
H        6.73557353      -0.28791587      -0.84485164
H        7.66884181       0.00662126      -2.42359075
