13
Properties=species:S:1:pos:R:3 -1415.9407782579844=T 9.980666=T 10.88199=T -10.0475=T -7.9727=T -10.427=T 0.9844=T -0.4394=T 0.038=T 10.25563=T 0.63446=T 4.2632090156=T 10.9408098078=T 0.334558043=T pbc="F F F"
C        0.93105131      -0.12059735       0.13619323
C        2.44641179       0.04295539      -0.10364413
C        2.92082697      -0.70397096      -1.26305588
C        3.33397654      -1.26073327      -2.26141911
C        2.81641721       1.55294725      -0.17009444
O        3.56000362       1.94632215      -1.23061251
O        2.46825443       2.33043100       0.68913759
H        0.63942362       0.48411412       1.00282957
H        0.68956672      -1.17313034       0.32700071
H        0.36202366       0.21578897      -0.74023962
H        2.97938048      -0.32766843       0.79014881
H        3.68816173      -1.78053774      -3.12897553
H        3.71037192       1.15742921      -1.80193869
