15
Properties=species:S:1:pos:R:3 -1599.682796637717=T 13.51643=T 14.18332=T -8.4918=T -6.673=T -8.323=T 1.1148=T -0.3961=T 0.269=T 7.71256=T 0.29112=T 4.4269325286=T 6.2776467534=T 0.385224668=T pbc="F F F"
C        2.42293233      -0.62935927      -1.40159879
C        2.35895665       0.01518267      -0.00808161
C        2.90668409       1.42000963       0.02569778
C        2.13648845       2.55495914       0.16044162
S        3.08675687       4.00326375       0.13331147
C        4.54785626       3.09454569      -0.06117314
C        4.29617451       1.74510987      -0.10181664
H        2.02839881      -1.65547344      -1.37777436
H        3.45644390      -0.67326010      -1.77407087
H        1.83323169      -0.05128880      -2.12721659
H        2.92085892      -0.60754480       0.70783149
H        1.31658136       0.02506014       0.34553604
H        1.05799802       2.62254130       0.27783959
H        5.50074566       3.61186262      -0.12664117
H        5.08250247       0.99810158      -0.21328482
