13
Properties=species:S:1:pos:R:3 -1355.0656405735488=T 11.697496=T 11.27338=T -9.1587=T -7.3377=T -9.79=T 0.0766=T -1.6044=T -0.482=T 9.45074=T 1.14801=T 4.095133594=T 5.1772338076=T 0.620526092=T pbc="F F F"
C        0.49366006       0.63608128       1.40777474
C        1.33123709       0.06263215       0.53432192
C        2.64848672       0.69099297       0.25194733
O        3.06643767       1.72174884       0.77662036
N        3.45689135       0.04292977      -0.68539095
N        3.10898263      -1.09084525      -1.33787699
C        3.94858640      -1.57419008      -2.18322271
H       -0.47838669       0.19769084       1.63358571
H        0.77635006       1.56275220       1.91112140
H        1.08743634      -0.86057249       0.00911216
H        4.36149587       0.49999173      -0.86304340
H        3.66371867      -2.48729440      -2.70536986
H        4.92571383      -1.11485756      -2.39954973
