19
Properties=species:S:1:pos:R:3 -1918.578028834672=T 12.202358=T 13.93366=T -9.9015=T -7.7365=T -11.222=T 1.0448=T 0.2067=T 3.099=T 11.07898=T -2.74465=T 9.3389230864=T 11.2743197492=T 0.34418699=T pbc="F F F"
C        1.25812676       0.20114692       0.11978451
C        0.99836471      -0.04337955       1.59377238
C        0.12809272      -1.19680377       2.03382140
C        1.61677132      -1.22606206       2.30175888
C        2.50521266       1.01946621      -0.15443518
C        3.85493873       0.35396416      -0.28766832
C        3.18088727       0.95109786      -1.50347265
H        1.33945921      -0.77019194      -0.40036689
H        0.38441270       0.71304711      -0.32281095
H        0.90855093       0.86791333       2.19284411
H       -0.26028032      -1.85938967       1.25804414
H       -0.54626326      -1.04794574       2.87781971
H        1.95956685      -1.09861043       3.32900020
H        2.22447726      -1.90897578       1.70583778
H        2.51252294       2.00317729       0.32485009
H        3.89174077      -0.73393536      -0.21220668
H        4.72890583       0.86298972       0.11973006
H        3.59439866       1.86713063      -1.92641512
H        2.76390425       0.26215108      -2.24056747
