16
Properties=species:S:1:pos:R:3 -1641.506589461664=T 11.968581=T 13.07528=T -9.2346=T -6.974=T -9.674=T 0.8924=T -0.0561=T 2.36=T 9.28931=T -1.93299=T 4.328475246=T 11.0182390648=T 0.400135372=T pbc="F F F"
N        0.91599531       0.01561947       0.14289251
C        2.37273039       0.01916797       0.01197054
C        3.12833153       1.07409812       0.85590348
C        4.18487483      -0.02306156       1.23111683
C        3.12870124      -1.09194753       0.78076651
C        5.39396553       0.00513877       0.42909426
C        6.40308318       0.02822415      -0.24831682
H        0.52493634      -0.77623102      -0.37667948
H        0.52883462       0.85497319      -0.29945829
H        2.73494610       0.05542964      -1.03358788
H        2.53453828       1.35091141       1.73858767
H        3.50184524       1.97463515       0.35258931
H        4.45375892      -0.05985979       2.29705836
H        3.50287985      -1.95513215       0.21623510
H        2.53475499      -1.42960261       1.64184663
H        7.29484364       0.04920678      -0.84038873
