16
Properties=species:S:1:pos:R:3 -1612.2472506702695=T 10.987309=T 11.58661=T -8.4527=T -6.343=T -9.034=T 0.9419=T -0.0893=T 1.262=T 8.59356=T -0.70874=T 5.9545392374=T 0.245477131=T pbc="F F F"
C        2.16310757      -0.33013138      -1.58578376
N        2.33579767       0.16551625      -0.21994526
C        3.41614877       1.16744839      -0.10244410
C        3.57013727       1.64075285       1.35951810
O        2.99709520       2.98236939       1.45114186
C        2.81626745       3.39281357       0.15844352
C        3.06807508       2.47435662      -0.78465759
H        1.44299058      -1.15938500      -1.58179347
H        3.10189528      -0.68512907      -2.06294829
H        1.74408752       0.46605696      -2.21807237
H        2.58223006      -0.62658593       0.38140989
H        4.38056537       0.76219826      -0.48199209
H        4.62705860       1.72033862       1.65512766
H        3.02794582       1.00039928       2.06858836
H        2.48212836       4.42453838       0.05931805
H        2.98339938       2.62716281      -1.85593050
