15
Properties=species:S:1:pos:R:3 -1472.7200580670178=T 11.767118=T 11.95799=T -8.3798=T -6.3565=T -9.176=T 1.2196=T -0.2265=T 0.618=T 8.7243=T -0.11857=T 5.013311917=T 6.206987132=T 0.25849642=T pbc="F F F"
C        0.77406302      -0.13608248      -0.06198826
C        2.25627011      -0.30759284       0.04226957
C        2.91923304      -1.47290251      -0.03694952
O        2.86371562       0.92124432       0.26009802
C        4.20530101       1.02710011      -0.02494499
N        4.91641345       1.80708349       0.68906644
N        6.20420457       2.07983545       0.25604047
H        0.51554457       0.50114411      -0.92068927
H        0.38706290       0.36001469       0.84024799
H        0.27823947      -1.10670906      -0.17252723
H        2.36471700      -2.39050407      -0.22092034
H        3.99519483      -1.54684378       0.10842714
H        4.54056720       0.46858350      -0.91450193
H        6.78136328       2.29437629       1.06800982
H        6.63472994       1.32990279      -0.30027791
