15
Properties=species:S:1:pos:R:3 -1521.4454857855796=T 10.850953=T 11.44293=T -8.6348=T -6.6519=T -9.395=T 0.869=T -0.0473=T 0.873=T 8.84144=T -0.24432=T 4.4087809782=T 5.8924594472=T 0.125162043=T pbc="F F F"
C        2.12666499      -0.17853572       0.00586614
C        0.76596190      -0.83628066       0.15164594
C       -0.44322880      -1.39195655      -0.56208623
N       -1.57767528      -0.50754311      -0.14869310
C       -1.35257376       0.65147861       0.37037124
N       -0.10850259       1.30301625       0.60331479
C        0.86257810       0.62815030      -0.21117339
H        2.73432392      -0.27824635      -0.89585551
H        2.69809820      -0.12396478       0.93360921
H        0.57174685      -0.90973487       1.22832589
H       -0.70774578      -2.41544612      -0.25226455
H       -0.36396651      -1.39388911      -1.66079878
H       -2.21881364       1.23911157       0.69986539
H       -0.16273816       2.32276645       0.57780477
H        0.70337054       0.79317408      -1.28532181
