18
Properties=species:S:1:pos:R:3 -1760.57332883544=T 11.262712=T 12.60666=T -8.6842=T -6.5266=T -10.035=T 1.1568=T -0.6047=T 0.214=T 9.65222=T 0.52186=T 3.7100082808=T 11.7451689828=T 0.173609852=T pbc="F F F"
C        0.84728689      -0.11151871       0.65105255
C        2.33858470      -0.09560094       0.33367448
C        2.99824252       1.26419424       0.49847497
O        2.43461850       2.21037209       1.03059848
C        4.41472548       1.41516142      -0.07985946
N        5.14826730       2.59729358       0.33368388
C        5.66049156       2.49770664       1.70498242
H        0.43685844      -1.12487890       0.54762947
H        0.29423361       0.55548201      -0.02430052
H        0.66242264       0.23799207       1.67508970
H        2.54244221      -0.45779803      -0.68937923
H        2.89026192      -0.79177127       0.99228988
H        4.29117777       1.41819563      -1.18069863
H        5.00660651       0.51119152       0.14399406
H        4.50183293       3.39114238       0.29000934
H        6.43252561       1.71371100       1.74634103
H        4.89168549       2.27086955       2.46891512
H        6.14100592       3.44725571       1.97744247
