16
Properties=species:S:1:pos:R:3 -1574.124770538479=T 10.648606=T 11.69175=T -8.3437=T -6.3042=T -8.991=T 0.9766=T 0.0761=T 1.307=T 8.54991=T -0.76069=T 6.0879853692=T 0.330692347=T pbc="F F F"
C        1.26192949      -0.28488538       0.18628624
C        2.74938498      -0.45449794      -0.05162935
O        3.37222091       0.83351129       0.07625420
C        4.72603610       0.87450652      -0.10527273
C        5.56814472      -0.13482076      -0.38605045
C        7.04477905       0.07505652      -0.55626067
H        0.75613941      -1.25531893       0.08827040
H        0.82547902       0.40868668      -0.54528530
H        1.06893284       0.10611389       1.19451013
H        2.95092506      -0.85469870      -1.06188786
H        3.19629813      -1.14769324       0.68391095
H        5.08363334       1.90137322       0.01142793
H        5.19393212      -1.15448883      -0.49902204
H        7.31602671       1.13361218      -0.43373031
H        7.38764574      -0.24410384      -1.55376736
H        7.62492239      -0.50552267       0.17933623
