17
Properties=species:S:1:pos:R:3 -1683.5858054082526=T 12.686487=T 12.69922=T -8.1545=T -6.3222=T -8.625=T 1.0812=T -0.4889=T 0.628=T 7.86642=T -0.09291=T 4.9189089766=T 5.1313341904=T 0.350310137=T pbc="F F F"
C        1.85699019      -0.22230083       1.44624103
C        2.29986227       0.23093259       0.05366858
N        2.91432625       1.56285056       0.03455892
C        2.11151401       2.69789506      -0.01530847
C        0.76608829       2.74810039       0.00873980
C        4.31100566       1.64986825       0.10639248
N        5.08689532       2.66019817       0.25105233
H        1.39034503      -1.21623463       1.38876205
H        1.12934956       0.47342364       1.88425254
H        2.71748837      -0.28703396       2.12662042
H        1.45045215       0.24134326      -0.64665212
H        3.03875765      -0.47401339      -0.35494796
H        2.67929088       3.62476301      -0.11304075
H        0.12968868       1.87134010       0.11616829
H        0.27474949       3.71385296      -0.08603903
H        4.77400159       0.65779230       0.00851052
H        4.57332461       3.54380254       0.36879137
