15
Properties=species:S:1:pos:R:3 -1469.7368189250694=T 11.527447=T 12.11049=T -8.6678=T -6.6619=T -9.346=T 1.2133=T -0.4407=T 0.445=T 8.91049=T 0.11549=T 4.8694509612=T 11.6341767156=T 0.232054046=T pbc="F F F"
C        0.92512559       0.24571365      -0.13870321
C        2.40264115       0.14705783       0.13075431
O        3.12124586      -0.92172679      -0.51699984
C        3.41431640       0.45573462      -0.90472660
C        4.75702128       0.95247928      -0.56278885
N        5.40611147       1.67027162      -1.41268654
N        6.61274020       2.19116630      -1.03306864
H        0.54558770       1.23143282       0.16870159
H        0.37800417      -0.52047784       0.42990465
H        0.71166246       0.10205712      -1.20618403
H        2.70367528       0.30103853       1.17692443
H        3.06300963       0.73599162      -1.90427103
H        5.16957214       0.67755854       0.42500360
H        7.10889391       1.67690455      -0.29438056
H        7.19924276       2.36513815      -1.84629929
