15
Properties=species:S:1:pos:R:3 -1506.5365224259085=T 10.391189=T 11.26882=T -9.1621=T -7.1595=T -10.645=T 0.8709=T -0.0979=T 0.473=T 9.64019=T 0.17137=T 4.3428452234=T 11.9832469=T 0.155931793=T pbc="F F F"
C        1.03171410       0.20471107      -0.28652693
N        2.46558213       0.37005457      -0.04756051
C        3.34261003      -0.61335079      -0.68052728
C        3.26461265       0.79130075      -1.20678149
C        4.38432194       1.77946602      -0.98022597
N        4.63650861       2.03342371       0.33876938
O        5.01429388       2.26361137      -1.91965228
H        0.53486651       1.17985657      -0.18713420
H        0.61820910      -0.47519914       0.47160253
H        0.80403179      -0.20647879      -1.28906135
H        2.88177610      -1.39261536      -1.29691605
H        4.21388849      -0.92208791      -0.09876605
H        2.76300341       0.92061522      -2.17091717
H        3.95121068       1.71863267       1.02318132
H        5.31806058       2.74689004       0.57288607
