17
Properties=species:S:1:pos:R:3 -1746.289155229896=T 11.616372=T 12.7071=T -9.3377=T -7.103=T -9.305=T 1.2874=T -0.1579=T 1.293=T 8.68056=T -0.64983=T 6.3720868896=T 0.420941474=T pbc="F F F"
C        0.96966486      -0.04289694       0.09898693
C        2.48482380      -0.02998364       0.10149246
C        3.15073370       1.21802218       0.70469724
C        4.47210846       0.68079108       1.20937319
C        5.55411243       1.37784382       1.56957448
C        4.33883438      -0.83283908       1.20788850
O        2.96101758      -1.11091506       0.93163323
H        0.59198953      -0.99938906      -0.28603533
H        0.58102424       0.76283457      -0.53927484
H        0.58482628       0.09830960       1.11939169
H        2.86488744      -0.17892453      -0.93207144
H        2.54130981       1.58237379       1.54978268
H        3.26803138       2.04170069      -0.01315089
H        6.45804498       0.88203389       1.92946382
H        5.57448254       2.46772064       1.52021064
H        4.98822279      -1.27526417       0.42502574
H        4.59318581      -1.29740781       2.17178191
