18
Properties=species:S:1:pos:R:3 -1747.7152970801865=T 11.218546=T 12.44875=T -9.2798=T -7.0318=T -10.595=T 0.8801=T -0.0733=T 2.819=T 9.97522=T -2.54918=T 8.4872384552=T 12.9309090938=T 0.096673063=T pbc="F F F"
N        0.95750454       0.01119154       0.05339869
C        2.41989150       0.02447855       0.03824934
C        3.11237052       1.09451851       0.91735091
C        4.15312775       0.02066500       1.33573675
C        3.13930374      -1.06916037       0.87786186
C        3.65626501      -2.30958286       0.17153136
O        4.37859733      -3.19692630       1.03692937
H        0.60837806      -0.77575136      -0.50165329
H        0.60149138       0.85426750      -0.40713253
H        2.86266384       0.04538340      -0.98038757
H        2.45702607       1.36442895       1.75814453
H        3.47652510       2.00835821       0.42818788
H        5.04429972       0.04367941       0.68767786
H        4.47642967       0.01266452       2.38498055
H        2.48616575      -1.35624413       1.71738413
H        4.28227942      -2.01126893      -0.69377720
H        2.81832468      -2.90898440      -0.21912242
H        5.12253591      -2.69412726       1.41316979
