15
Properties=species:S:1:pos:R:3 -1475.9596784914131=T 10.459311=T 10.94003=T -8.8875=T -6.8626=T -9.845=T 1.0951=T -0.3123=T 0.649=T 9.30413=T -0.04177=T 4.9802820466=T 13.0705793228=T 0.154400079=T pbc="F F F"
C        0.97757301       0.09768502      -0.37254526
C        2.39928570       0.01260177       0.16468340
C        2.78175236      -1.34733067       0.80136934
N        3.74566234      -0.91096240       1.83462240
O        3.72547669      -1.74969245       3.00947073
C        3.36307943       0.41495905       2.11800305
N        2.65204239       1.01415633       1.23449880
H        0.81943201      -0.62285897      -1.18805487
H        0.78085655       1.10645729      -0.75961732
H        0.24935436      -0.11171500       0.42419972
H        3.10992926       0.23659595      -0.65231561
H        3.24251576      -2.05464053       0.10027855
H        1.91361149      -1.82262127       1.29273247
H        4.60472511      -2.17107528       2.98667947
H        3.73931354       0.87333116       3.03485512
