17
Properties=species:S:1:pos:R:3 -1783.1863235170567=T 14.338492=T 15.34031=T -8.21=T -6.1679=T -7.94=T 0.9883=T -0.4317=T 0.799=T 7.52231=T -0.14418=T 3.8431072518=T 10.7155768402=T 0.464841531=T pbc="F F F"
C        0.93874596      -0.04494846      -0.00006003
C        2.39172460       0.00645370       0.00013952
C        3.61176612       0.06063435       0.00022508
C        5.02895662       0.05621904       0.00011359
C        5.82421045       1.15586350       0.00104997
C        5.27469259       2.55194675       0.00236411
C        7.32025161       1.02601443       0.00087639
H        0.50409003       0.96597638       0.01173271
H        0.55769618      -0.58246595       0.88213625
H        0.55715070      -0.56197733      -0.89419938
H        5.50632177      -0.93013097      -0.00080716
H        4.17772909       2.55621783       0.00186169
H        5.62984504       3.11055325      -0.87968282
H        5.62899316       3.10855393       0.88602426
H        7.64209881      -0.02372556      -0.00005034
H        7.75796465       1.52160183       0.88370494
H        7.75794262       1.52316329      -0.88107878
