19
Properties=species:S:1:pos:R:3 -1810.7175117235918=T 11.729745=T 12.94739=T -8.9594=T -6.8757=T -10.685=T 0.8=T -0.1812=T 2.849=T 10.07838=T -2.49525=T 8.4506625852=T 11.3706816684=T 0.247636206=T pbc="F F F"
C        0.72484728       0.26229802       0.56057044
C        1.82282978       0.17365178      -0.50480996
C        3.11742886       0.87034767      -0.11198637
C        3.86673956       0.22689526       1.05604663
N        5.07481229       0.97626199       1.43097026
C        3.89084060       1.60724651      -1.14829767
N        3.06146072       2.34643065      -0.16234275
H       -0.21702899      -0.16542005       0.18917417
H        0.54007351       1.31324281       0.82593474
H        0.98876459      -0.28187922       1.47941126
H        1.45993246       0.63814969      -1.43439664
H        2.03985220      -0.88254171      -0.74470105
H        4.06074482      -0.83494402       0.80644607
H        3.19684341       0.22507171       1.93072408
H        5.87915466       0.66457330       0.88406067
H        5.30718904       0.80618648       2.40948741
H        3.52052398       1.63237663      -2.17680103
H        4.97719252       1.67593354      -1.04600824
H        3.71241870       2.68382894       0.56194796
