17
Properties=species:S:1:pos:R:3 -1634.1459790794258=T 11.005007=T 11.90331=T -8.6552=T -6.6891=T -9.953=T 0.7539=T -0.2141=T 0.455=T 9.5252=T 0.23745=T 4.2894692504=T 12.8281123012=T 0.176368548=T pbc="F F F"
C        1.43624645      -0.31476276       0.30210608
C        2.94573975      -0.21757514       0.09567217
C        3.41835967       1.23072198      -0.01860560
O        2.65040902       2.19043030       0.13447894
N        4.74983922       1.44276566      -0.30398499
C        5.81011068       0.45288177      -0.19193702
N        5.22222783       2.78755691      -0.20718110
H        1.13210383      -1.36661550       0.39193340
H        0.89330326       0.13541771      -0.53904032
H        1.12859366       0.21900446       1.21012662
H        3.24530000      -0.77117109      -0.80922901
H        3.47625692      -0.69743196       0.93553358
H        5.40729591      -0.55222904      -0.34839350
H        6.30011286       0.50694385       0.79422342
H        6.56986129       0.64145147      -0.96357936
H        4.42021155       3.29599683       0.19655818
H        5.29702812       3.14512458      -1.16868148
