17
Properties=species:S:1:pos:R:3 -1812.6364643073398=T 12.647239=T 13.27508=T -7.8159=T -5.855=T -7.845=T 1.15=T -0.3539=T 0.783=T 7.30588=T -0.18201=T 4.4126989358=T 6.863307023=T 0.555562734=T pbc="F F F"
C        0.91573669      -0.02317018      -0.00249694
C        2.41021919       0.01575225       0.00195155
C        3.24240734       1.09739508       0.00526052
C        2.88426860       2.55233126       0.00538808
C        4.63588617       0.62075064       0.00898305
C        4.66473966      -0.73194188       0.00792021
C        3.25094442      -1.23744458       0.00335397
H        0.47772999       0.98382068       0.00039673
H        0.52218022      -0.55821206       0.87794839
H        0.52709110      -0.55103810      -0.88946307
H        1.79843586       2.71337839      -0.00078425
H        3.30440274       3.06376779      -0.87556181
H        3.29401722       3.06118861       0.89272652
H        5.50361528       1.28241400       0.01204799
H        5.54556658      -1.37115670       0.00990780
H        3.04295609      -1.87108884      -0.87843097
H        3.03779285      -1.87251635       0.88287224
