17
Properties=species:S:1:pos:R:3 -1602.5067460268685=T 11.257222=T 11.97568=T -8.979=T -7.0104=T -10.096=T 0.7227=T -0.4162=T 0.778=T 9.40672=T -0.25485=T 4.9069195304=T 8.9173954836=T 0.231621294=T pbc="F F F"
C        1.66813599      -0.72928131       1.78261973
C        2.48168752      -0.68070117       0.48890703
C        3.52527243       0.43526614       0.45814613
N        4.56787747       0.27248211       1.48233016
O        5.45030340      -0.79737642       1.11578605
C        5.27435433       1.41657921       1.88825596
N        6.50799064       1.53560936       2.20000759
H        0.94941253      -1.56032179       1.76869770
H        1.09936339       0.20187314       1.92945241
H        2.31914042      -0.85882002       2.65925084
H        1.81229638      -0.53013116      -0.37344921
H        2.98749620      -1.64367354       0.31292225
H        3.04702142       1.40623819       0.66380781
H        3.99753205       0.49751939      -0.53882065
H        5.29792271      -1.46197307       1.81417984
H        4.59636672       2.27611422       1.99105732
H        6.99413640       0.64332672       2.02129904
