19
Properties=species:S:1:pos:R:3 -1922.806127158058=T 13.527159=T 14.46012=T -9.4384=T -7.2376=T -9.436=T 1.484=T 0.0156=T 1.334=T 8.98934=T -0.76211=T 6.5563424842=T 0.521190946=T pbc="F F F"
C        0.90620882       0.29941382       0.29172166
C        2.41591419       0.24650012       0.00287482
C        2.69115833      -0.64347485      -1.23844557
C        4.14679931      -0.89823250      -1.49720139
C        4.71254441      -2.10995107      -1.54611510
C        2.96342998       1.63615986      -0.18614717
C        3.89974490       2.21701566       0.57241873
H        0.69845728       0.89431188       1.19189845
H        0.50094328      -0.71193031       0.44457544
H        0.36066031       0.75719114      -0.54861638
H        2.92625219      -0.21251435       0.86766428
H        2.24039398      -0.14744539      -2.11896755
H        2.16475198      -1.60399005      -1.11340525
H        4.77344076      -0.01106504      -1.64179262
H        4.12390625      -3.02008493      -1.40032235
H        5.77967636      -2.23498797      -1.73625347
H        2.53032506       2.20066787      -1.02314932
H        4.35763894       1.69087638       1.41418504
H        4.23975365       3.23575973       0.37930775
