15
Properties=species:S:1:pos:R:3 -1461.7635358723262=T 11.06111=T 12.44531=T -10.0032=T -8.1464=T -10.122=T 0.7032=T -0.259=T 0.204=T 9.76259=T 0.25012=T 5.22353018=T 10.811703186=T 0.141391058=T pbc="F F F"
C        0.87763208       0.05200312       0.03285078
C        2.38892139       0.03403711      -0.01860062
C        3.19025985       1.02744192       0.86722352
C        4.30258022       0.06773286       1.35568842
S        3.25031783      -1.35655171       0.86220635
O        2.44172654      -1.81161490       2.00757518
O        3.91724565      -2.32074350      -0.02453012
H        0.44756031      -0.73775204      -0.59747777
H        0.49906819       1.01781459      -0.33314513
H        0.52385882      -0.09575215       1.06249094
H        2.77677293       0.01251338      -1.04828038
H        2.57475368       1.37695861       1.70661629
H        3.56900739       1.89599579       0.31457490
H        5.20877971       0.07230541       0.73792084
H        4.54594540       0.07752151       2.42310680
