9
Properties=species:S:1:pos:R:3 -1086.5892943987842=T 8.999863=T 9.32231=T -10.6817=T -8.6819=T -10.264=T -0.3119=T -2.1041=T -1.263=T 9.55534=T 1.77775=T 4.7793627336=T 6.6947852518=T 0.378837109=T pbc="F F F"
N        0.93444229       0.08650993       0.00028439
C        2.10181722       0.07629960       0.00049396
C        3.52452196       0.00255660       0.00075276
N        4.25627622       1.11622836       0.00072006
O        5.57550977       0.67079203       0.00106513
C        5.59640312      -0.68386608       0.00118602
C        4.32736501      -1.17740990       0.00103391
H        6.58029208      -1.14216919       0.00141395
H        3.99757234      -2.20908136       0.00109983
