19
Properties=species:S:1:pos:R:3 -1763.071500458843=T 11.616856=T 12.89306=T -8.5372=T -6.3583=T -9.989=T 0.7967=T -0.2155=T 3.015=T 9.25173=T -2.72645=T 8.0759644946=T 10.8638888934=T 0.120358348=T pbc="F F F"
C        0.85584188       0.20006073      -0.12612468
N        2.31309959       0.19748575      -0.05090267
C        2.87250805       1.54281150       0.03129430
C        4.39160835       1.50054594      -0.03214133
O        4.77610514       0.96305416      -1.30054730
C        5.02722629       2.88457006       0.14661683
N        6.46432301       2.77938514      -0.16448984
H        0.49180960      -0.82770016      -0.26306848
H        0.44256162       0.82858180      -0.94450807
H        0.43876743       0.57596048       0.82202172
H        2.70108513      -0.25026401      -0.88529138
H        2.56360256       1.99273926       0.99202587
H        2.50729814       2.21423572      -0.78005391
H        4.75098759       0.83097768       0.77870855
H        5.69645893       1.28855988      -1.41984730
H        4.80926496       3.27006538       1.16031460
H        4.57717140       3.57526074      -0.58390653
H        6.97903093       2.40483725       0.63629404
H        6.86290941       3.69621272      -0.36984442
