14
Properties=species:S:1:pos:R:3 -1316.14438803723=T 10.676755=T 11.94407=T -9.8607=T -7.889=T -10.249=T 0.6068=T -0.4266=T -0.195=T 9.91037=T 0.61032=T 5.0924273836=T 10.7702794634=T 0.130931844=T pbc="F F F"
C        1.17105708       0.15309356       0.12988010
S        2.91879318      -0.08791719      -0.23379930
O        3.45343313      -1.05181192       0.73839498
O        3.05139319      -0.29713455      -1.68410860
C        3.59429124       1.55663753       0.14962652
C        4.10121336       1.87022053       1.51074984
N        5.02903973       1.55482663       0.40882696
H        0.76571657       0.92160579      -0.53773616
H        1.05933068       0.42233821       1.18583360
H        0.69558344      -0.81423792      -0.07212053
H        3.14015900       2.33407828      -0.47161562
H        4.05629476       1.09635674       2.27991417
H        3.99719912       2.90321725       1.85283854
H        5.45227550       2.39875707       0.01211550
