13
Properties=species:S:1:pos:R:3 -1436.9529027552883=T 12.823233=T 11.54535=T -8.0868=T -6.3321=T -8.438=T -0.2113=T -1.79=T -0.712=T 7.72028=T 1.14386=T 4.2949742288=T 0.64310242=T pbc="F F F"
C        1.03308846      -0.04786991      -0.18037117
C        2.35994573       0.00754762       0.07735671
N        3.21587138      -1.06731276       0.33185553
C        4.53357073      -0.64136989       0.55896036
N        5.59697636      -1.32302472       0.82365233
C        4.47723768       0.82506605       0.43130566
C        3.20823851       1.19899290       0.15038645
H        0.48538784      -0.98883292      -0.21385485
H        0.48137287       0.87163417      -0.36244595
H        2.92139187      -2.03689274       0.35130842
H        5.39739636      -2.33196762       0.86423005
H        5.35707683       1.44977208       0.55573452
H        2.82833538       2.20597776      -0.00482805
