20
Properties=species:S:1:pos:R:3 -1933.5394695432358=T 13.232187=T 14.43315=T -8.6848=T -6.5413=T -9.46=T 1.0643=T -0.0257=T 1.378=T 8.89962=T -0.79629=T 6.6506338372=T 0.461756723=T pbc="F F F"
C        2.53166281      -0.89370802      -0.20821023
N        3.80789430      -0.21362311       0.00447878
C        3.87176288       1.07450401      -0.68405702
C        5.18181773       1.83549259      -0.39920045
C        6.41748525       1.06187662      -0.89377662
C        5.12777035       3.19765526      -1.03849586
C        5.17281115       4.36264341      -0.38271985
H        2.55732083      -1.88315829       0.26934070
H        2.25888953      -1.02886411      -1.27682647
H        1.72553138      -0.31476112       0.26864169
H        4.56023320      -0.81529326      -0.33788590
H        3.02803421       1.68560490      -0.32208653
H        3.73985690       0.98061605      -1.78808320
H        5.25878291       1.95993233       0.69445725
H        6.35779480       0.87452641      -1.97814465
H        6.52200071       0.09477539      -0.38064721
H        7.33505423       1.63526312      -0.70228466
H        5.04879358       3.20590105      -2.13354888
H        5.25362743       4.39919902       0.70704931
H        5.13181579       5.31769775      -0.90885019
