18
Properties=species:S:1:pos:R:3 -1746.7986211309817=T 11.250692=T 12.4114=T -8.6367=T -6.5052=T -10.009=T 0.7924=T -0.1871=T 2.954=T 9.56824=T -2.59316=T 7.9633976052=T 9.8136902776=T 0.133628981=T pbc="F F F"
C        0.95077687       0.05948675      -0.09835396
C        2.45086064      -0.03249365       0.05137869
C        3.33804053      -0.78266448      -0.96617800
N        2.87576891      -1.41816592      -2.18012943
C        3.41669948       0.72176002      -0.83204540
C        2.93890663       1.64804193      -1.92867741
O        4.53984278       1.23557121      -0.12185240
H        0.56060085       1.00985625       0.29667021
H        0.45857770      -0.75637829       0.45299201
H        0.62851782      -0.02178442      -1.14686658
H        2.80654422      -0.11968370       1.08163528
H        4.18295021      -1.30801305      -0.51183794
H        2.32687952      -0.78017067      -2.75690623
H        2.27597057      -2.21917055      -1.96688175
H        2.00866251       1.30840865      -2.40400359
H        3.70211476       1.74829730      -2.71667552
H        2.75015272       2.64593395      -1.50745524
H        5.30893327       1.18289870      -0.71945272
