16
Properties=species:S:1:pos:R:3 -1578.7690501421632=T 10.203539=T 10.9657=T -9.5376=T -7.3895=T -10.349=T 0.7077=T -0.327=T 0.138=T 9.9926=T 0.4994=T 4.3884720714=T 5.7923903466=T 0.162295832=T pbc="F F F"
C        0.87962011       0.06205350       0.29169816
N        2.28354964       0.10307459      -0.09746226
C        3.02589806      -1.17173811      -0.16435347
C        3.55641150      -1.55372810      -1.55499779
O        4.80671610      -0.97253559      -1.87356487
C        2.90657218       1.28600913      -0.33592039
O        4.07786187       1.42069583      -0.70725172
H        0.47926971       1.08300554       0.32244921
H        0.75961452      -0.39092961       1.28824552
H        0.28956866      -0.51955900      -0.43326724
H        2.33472300      -1.94870363       0.19097339
H        3.87683010      -1.12684115       0.53529489
H        2.77880373      -1.31419770      -2.31033966
H        3.70346120      -2.64592563      -1.57432156
H        4.75834050      -0.03416452      -1.57043839
H        2.24487912       2.16161444      -0.16070381
