19
Properties=species:S:1:pos:R:3 -1919.201552108093=T 13.323584=T 15.34023=T -9.3655=T -7.0499=T -9.174=T 0.8538=T -0.0115=T 2.472=T 8.7264=T -2.03148=T 4.1354786384=T 9.957501639=T 0.663486982=T pbc="F F F"
C        0.92039200       0.02954889       0.07962322
C        2.37657347       0.04184363       0.07503498
C        3.59321080       0.04395121       0.06921709
C        5.05234299       0.06592045       0.05667015
C        5.67036311       1.48683493       0.04532210
C        5.28378103       2.27574069       1.29907009
C        7.19131427       1.39536553      -0.11258027
H        0.51305952       1.05182909       0.05321710
H        0.52759720      -0.46214351       0.98269822
H        0.52293727      -0.50938510      -0.79396155
H        5.41488205      -0.48864297      -0.82643092
H        5.43623382      -0.48046739       0.93821620
H        5.25844337       2.01160364      -0.83470147
H        5.68902112       1.79317021       2.20371169
H        4.19191869       2.33608692       1.40870371
H        5.68316693       3.29979132       1.25861866
H        7.64365180       0.86252942       0.73982057
H        7.64419094       2.39664015      -0.15576645
H        7.47157963       0.85878289      -1.03160312
