15
Properties=species:S:1:pos:R:3 -1627.4755775423198=T 11.074213=T 11.6985=T -9.086=T -7.1337=T -10.003=T -0.1031=T -1.7997=T -0.467=T 9.39023=T 1.09295=T 3.4952645288=T 5.4116045434=T 0.328922766=T pbc="F F F"
C        1.03359709      -0.03243209       0.19542373
C        2.35649254       0.04884563      -0.00577881
C        3.25573668       1.26067133      -0.02350637
C        4.46920229       0.81961884      -0.87866815
C        4.61721856      -0.68288499      -0.59062852
C        3.19277555      -1.16645827      -0.31452924
O        2.80343008      -2.32394328      -0.34214176
H        0.54755368      -1.00994303       0.15622066
H        0.41566106       0.84476128       0.39478231
H        3.58790629       1.48679706       1.00535046
H        2.75953366       2.16221463      -0.40809025
H        4.23955962       0.96945391      -1.94515533
H        5.37558985       1.39578408      -0.65140768
H        5.08790889      -1.27216440      -1.38777593
H        5.20210415      -0.85636071       0.33025487
