14
Properties=species:S:1:pos:R:3 -1469.4744829990877=T 9.767645=T 10.58545=T -9.4502=T -7.4611=T -10.853=T 0.6263=T -1.2193=T -0.393=T 10.18326=T 1.13489=T 3.7352890262=T 8.1060434982=T 0.16831071=T pbc="F F F"
C        2.20837794      -1.62750658      -0.06020303
C        2.99865533      -0.47935790      -0.63941202
O        3.19892851      -0.38249743      -1.84743016
C        3.51509629       0.54960379       0.35819044
C        4.89621510       1.17943459       0.09547637
N        5.14366496       1.49656078      -1.20750610
O        5.65738960       1.41819909       1.02919813
H        2.87593379      -2.25320293       0.55254689
H        1.76998249      -2.23104626      -0.86182981
H        1.42246590      -1.25611447       0.61410188
H        3.52779768       0.14963273       1.37931956
H        2.78176816       1.37554758       0.34971464
H        4.57429271       1.03129965      -1.91958388
H        6.08730156       1.79913736      -1.43220292
