18
Properties=species:S:1:pos:R:3 -1784.2356954273732=T 12.731826=T 14.49622=T -9.392=T -7.0537=T -9.827=T 0.8896=T -0.0758=T 2.331=T 9.45043=T -1.95907=T 4.3677292136=T 10.6096308032=T 0.84621202=T pbc="F F F"
N        0.89920656      -0.03281642       0.04619465
C        2.36866266      -0.10166737       0.03696574
C        2.97338157       1.29819430      -0.06881149
C        4.50216671       1.29458586      -0.02582161
C        5.09461944       2.71374699      -0.13652249
C        6.55147976       2.73958831      -0.09950705
C        7.76542536       2.73922149      -0.07015432
H        0.50659084      -0.96868100       0.17033653
H        0.56347601       0.29573975      -0.86365720
H        2.78622778      -0.73633576      -0.77270640
H        2.68580360      -0.55941432       0.98895173
H        2.56712488       1.91645450       0.74900612
H        2.63398214       1.76717130      -1.01092181
H        4.90585101       0.67597254      -0.84375026
H        4.85221532       0.83617679       0.91340285
H        4.70123853       3.34100073       0.68201794
H        4.74965609       3.18441712      -1.07355877
H        8.83572172       2.74234520      -0.04189417
