18
Properties=species:S:1:pos:R:3 -1772.5127589864476=T 12.817088=T 14.12142=T -8.471=T -6.4648=T -9.759=T 0.9188=T -0.0229=T 2.355=T 9.41199=T -1.95419=T 4.368770696=T 10.615743313=T 0.848931113=T pbc="F F F"
C        0.88904643      -0.36991319       0.23563910
N        2.24567134      -0.13002914      -0.25035989
C        2.65731378      -1.20208750      -1.15312333
C        2.38209206       1.17302076      -0.90167049
C        2.32029965       2.34402569       0.10045821
C        2.58596816       3.62732132      -0.53529239
C        2.81642638       4.68357895      -1.08791262
H        0.60385969       0.38307450       0.98233524
H        0.84619616      -1.35276697       0.72550458
H        0.13094095      -0.35575824      -0.58021587
H        2.60479005      -2.16615709      -0.62714630
H        3.69734927      -1.04200667      -1.47085321
H        2.02196944      -1.27313767      -2.06460077
H        1.61492270       1.32819730      -1.69409270
H        3.36380578       1.20090355      -1.39744571
H        3.05676818       2.15983555       0.89977187
H        1.33142486       2.38511464       0.58476222
H        3.01442511       5.62022420      -1.56754794
