13
Properties=species:S:1:pos:R:3 -1345.5923946646583=T 9.595709=T 10.33258=T -10.3837=T -8.4089=T -10.717=T 0.4167=T -1.3759=T -0.897=T 9.8995=T 1.22857=T 4.796336417=T 11.860810725=T 0.242818087=T pbc="F F F"
C        1.07726011       0.17100793       0.00250722
C        2.56660989       0.03745550      -0.00124672
N        3.35776939       1.09143558      -0.00888676
O        4.64616909       0.59260271      -0.00760760
N        4.64631844      -0.78895566       0.00032823
C        3.37779694      -1.14634365       0.00422664
C        2.96472398      -2.58350553       0.01093833
H        0.59294813      -0.81217108      -0.01978978
H        0.73582088       0.74217339      -0.87086253
H        0.73618614       0.70104847       0.90189807
H        1.87319118      -2.68010514       0.04140695
H        3.38026912      -3.10355850       0.88411675
H        3.32955673      -3.09759404      -0.88838880
