15
Properties=species:S:1:pos:R:3 -1587.500553605212=T 9.795959=T 10.90479=T -9.936=T -7.8608=T -11.272=T 0.7138=T -0.2366=T 0.218=T 10.25106=T 0.42563=T 4.3525161314=T 12.2677575742=T 0.123651328=T pbc="F F F"
C        0.95854154       0.02002824      -0.06825820
C        2.47849769      -0.02859145       0.04718585
C        3.07057995       1.07904187       0.93420118
O        4.34661524       0.57947830       1.40965180
C        4.37037935      -0.79669477       1.32796925
O        5.31477974      -1.44502374       1.71007748
C        3.06154800      -1.27868467       0.71352437
H        0.58475992      -0.78531962      -0.71581899
H        0.62014408       0.97423988      -0.49863059
H        0.48489822      -0.09297583       0.91910523
H        2.92384501       0.06722203      -0.95767991
H        2.42950627       1.28236175       1.80955066
H        3.26073888       2.02071378       0.40327715
H        3.24521211      -2.12611661       0.04301682
H        2.41805400      -1.63591916       1.53593790
