15
Properties=species:S:1:pos:R:3 -1530.694516218219=T 10.894885=T 11.99137=T -9.5955=T -7.403=T -9.665=T 1.2939=T -0.3388=T 1.016=T 9.17426=T -0.46136=T 6.5727210348=T 0.539764726=T pbc="F F F"
O        1.85997671      -0.61398631       1.06628245
C        2.14634767       0.12772126      -0.12535625
C        3.22982196       1.12502668       0.20760311
O        3.41253240       2.18350131      -0.74328241
C        2.90398394       2.51916097       0.58402437
C        3.79460077       3.31953290       1.44349399
C        3.36241345       4.29536954       2.25253150
H        1.28395728      -1.35843919       0.82564509
H        1.25857222       0.66916053      -0.50095847
H        2.50973309      -0.53493400      -0.93302668
H        4.15759777       0.68989090       0.60152787
H        1.84272905       2.79816140       0.59440996
H        4.85885328       3.07010310       1.39108039
H        2.30465423       4.56308833       2.30737623
H        4.04901618       4.85337258       2.88917885
