12
Properties=species:S:1:pos:R:3 -1246.328232290004=T 9.065221=T 10.03071=T -10.1895=T -8.0595=T -11.182=T 0.7378=T -0.4174=T 1.269=T 10.82105=T -0.89928=T 5.3393579012=T 11.1510900638=T 0.252445968=T pbc="F F F"
C        1.02012652      -0.00806250      -0.08025001
C        2.52378365       0.01017492       0.01509572
N        3.36570431      -0.67178504      -0.97861339
C        3.32893244       0.81607117      -0.96329185
C        4.53981607       1.49419565      -0.57030173
N        5.49659060       2.07814893      -0.24421603
H        0.57785276       0.79030461       0.53277335
H        0.62456469      -0.96802739       0.28231486
H        0.68221589       0.13149514      -1.11801404
H        2.93580785      -0.06452241       1.02600646
H        2.78695193      -0.99650052      -1.76244354
H        2.76896328       1.33411744      -1.74732980
