14
Properties=species:S:1:pos:R:3 -1420.731057777781=T 9.871322=T 10.6751=T -8.0493=T -5.9362=T -8.876=T 0.9651=T -0.109=T 1.076=T 8.47944=T -0.53917=T 5.573542658=T 11.5013009194=T 0.326193432=T pbc="F F F"
N        2.38872451      -0.18646070       1.59852121
C        2.58614120       0.01567286       0.14909109
C        3.04982466       1.39208239      -0.15097702
C        4.15246442       1.89169440      -0.72419847
O        4.04927014       3.27396865      -0.88673756
C        2.95970856       3.61309451      -0.01728371
O        2.14662454       2.43843106       0.11090452
H        1.98011391      -1.11119176       1.75538005
H        1.69701450       0.48985340       1.93353448
H        1.67386739      -0.17215309      -0.45588897
H        3.35785543      -0.68503589      -0.20336513
H        5.03894593       1.40977148      -1.11899134
H        2.37158771       4.42622410      -0.46129366
H        3.36344712       3.88453859       0.98110451
