13
Properties=species:S:1:pos:R:3 -1381.584491156668=T 9.888132=T 10.6411=T -9.9827=T -7.8404=T -9.677=T 1.0115=T -0.5332=T 0.793=T 9.06795=T -0.26878=T 5.3626672692=T 6.3794640566=T 0.392123807=T pbc="F F F"
C        0.93741709       0.13873737       0.19402019
C        2.40496079      -0.13623283       0.03242798
C        2.92143527      -1.36687689      -0.07739385
C        3.31515657       1.08328081      -0.03017249
C        3.22433080       1.93007184       1.16028935
N        3.14323789       2.59763892       2.11334415
H        0.74155187       0.69490029       1.12413834
H        0.35826088      -0.79234433       0.21694299
H        0.55957178       0.76288926      -0.63227999
H        2.28016637      -2.24952042      -0.06082696
H        3.99440783      -1.53298786      -0.18690196
H        3.04827730       1.70807418      -0.90065926
H        4.36337555       0.77722968      -0.16054848
