13
Properties=species:S:1:pos:R:3 -1345.455060792689=T 11.417562=T 11.2226=T -9.5358=T -7.553=T -10.469=T -0.9073=T -2.6698=T -1.392=T 10.11008=T 1.8206=T 3.2326373836=T 5.2327299412=T 0.722713689=T pbc="F F F"
C        2.18927165      -0.72603618       1.65752929
C        2.04032769      -0.36386794       0.20152890
O        1.40465688      -1.04289426      -0.59945119
C        2.69870652       0.88415262      -0.29771985
N        3.36247187       1.64005410       0.50712119
N        3.90129082       2.76603165      -0.15915717
C        4.53614548       3.52439023       0.66111963
H        1.80276447       0.08447426       2.29152031
H        3.25277335      -0.83452240       1.91395604
H        1.65090590      -1.65807408       1.85663159
H        2.58244841       1.11340595      -1.36679520
H        4.99758261       4.42856492       0.25671114
H        4.62203433       3.29158113       1.73175532
