20
Properties=species:S:1:pos:R:3 -1878.829268221548=T 12.249519=T 13.71371=T -8.6222=T -6.4283=T -9.976=T 0.9974=T 0.0876=T 3.301=T 9.24988=T -3.08447=T 8.1615272332=T 12.1251860728=T 0.137649317=T pbc="F F F"
C        1.96678810       3.11285750      -1.78887541
C        2.80433777       1.95264987      -1.28487878
O        3.96116343       2.46898136      -0.62868598
C        4.79985216       1.43387245      -0.11469922
C        5.95837774       2.07680211       0.62444832
N        5.48860582       2.81764018       1.79146469
C        6.56049112       3.54702637       2.46171294
H        1.07340993       2.73748890      -2.30715481
H        2.54202942       3.73076334      -2.49214775
H        1.64087348       3.74931691      -0.95443418
H        3.11305192       1.29924137      -2.12628894
H        2.22234345       1.32614238      -0.57917290
H        5.18121955       0.80397005      -0.94307364
H        4.22327894       0.78911157       0.57757753
H        6.53227975       2.70931584      -0.08979971
H        6.63943022       1.27709366       0.96349686
H        4.77153345       3.47508121       1.47471891
H        7.13880069       4.22147304       1.79391653
H        7.27167847       2.83197238       2.90527648
H        6.14209459       4.14823953       3.28083908
