17
Properties=species:S:1:pos:R:3 -1670.3089532261158=T 10.928963=T 11.93615=T -9.2245=T -7.2847=T -10.519=T 0.6989=T -0.2872=T 0.632=T 9.76127=T -0.04417=T 4.6827776396=T 12.5276942232=T 0.118791347=T pbc="F F F"
C        0.92932397      -0.45911893       0.10912166
C        2.39645639      -0.44701176      -0.33651889
C        2.93358928      -1.85243393      -0.60848216
N        2.60157274       0.39160256      -1.52511778
C        2.70442524       1.76721740      -1.39624817
N        2.64415159       2.45561711      -2.61646942
O        2.82295587       2.34782044      -0.31789447
H        0.58278599       0.56338146       0.30871106
H        0.80669948      -1.04964460       1.02894945
H        0.28615642      -0.90525316      -0.66641336
H        2.99598171       0.02919494       0.45335629
H        2.37401933      -2.34175021      -1.42255051
H        2.82905006      -2.48220965       0.28589440
H        3.99485164      -1.82117188      -0.89019908
H        2.17157772       0.05144124      -2.38386473
H        3.05306755       1.98753944      -3.42281277
H        2.95801501       3.41789952      -2.51368150
