15
Properties=species:S:1:pos:R:3 -1554.0961373766731=T 10.393018=T 11.25336=T -8.7643=T -6.6471=T -9.273=T 1.0249=T -0.0188=T 1.199=T 8.71432=T -0.62142=T 6.243748981=T 0.389395=T pbc="F F F"
C        1.00616470       0.10707795       0.04017969
C        2.51721120      -0.00125572       0.01366166
O        3.09975973       1.07005745       0.79305880
C        4.36507876       0.58322109       1.15987097
O        4.21427172      -0.83234739       1.39455862
C        3.11685160      -1.23601101       0.66651251
C        2.71322599      -2.50912161       0.59376347
H        0.56053311      -0.70063827      -0.55571773
H        0.68786142       1.06539060      -0.39056715
H        0.63599753       0.03276203       1.07082807
H        2.88975601       0.07342620      -1.02979746
H        5.10970719       0.72258993       0.34972831
H        4.69036981       1.06782841       2.08982104
H        1.82338348      -2.76554401       0.02371312
H        3.25813774      -3.30480566       1.09769609
