17
Properties=species:S:1:pos:R:3 -1703.8148736069952=T 10.472503=T 11.57737=T -9.892=T -7.7951=T -10.882=T 0.7585=T -1.0101=T -0.015=T 9.91082=T 0.74114=T 3.7966001032=T 8.3838341312=T 0.116998337=T pbc="F F F"
C        2.90086382      -0.73665748       1.74983667
C        2.86155643      -0.27421099       0.29293381
C        3.17452751       1.22566162       0.10765894
O        2.21126996       2.02727558       0.75868554
C        4.57625718       1.60847609       0.58866369
C        5.76661422       0.88901889       0.00556775
O        4.69186486       2.49693414       1.42736203
H        2.60289197      -1.79095536       1.83132793
H        2.21049475      -0.13892785       2.36007781
H        3.90596215      -0.64097135       2.18919101
H        1.85509661      -0.43677940      -0.12235626
H        3.55359599      -0.86478241      -0.32932418
H        3.16390532       1.43922746      -0.98384436
H        2.74177909       2.62558897       1.33459817
H        5.86856366      -0.09505889       0.48944545
H        6.67807382       1.46660903       0.19472441
H        5.64318266       0.71025196      -1.07166843
