15
Properties=species:S:1:pos:R:3 -1604.5920883875503=T 10.49435=T 11.1717=T -8.2652=T -6.1861=T -8.89=T 1.0182=T 0.0334=T 1.26=T 8.47545=T -0.69253=T 5.8271932168=T 0.224857559=T pbc="F F F"
C        1.62659876      -0.14042158       0.25006048
C        0.97263149      -1.53152299       0.51058326
C       -0.22723819      -1.11753760      -0.39516941
C       -1.38180517      -0.42097746       0.28089677
C       -1.29909184       0.89931924       0.05041067
O       -0.22238914       1.31235401      -0.70252923
C        0.59655100       0.11913449      -0.87538851
H        2.68419853      -0.13543464      -0.04590650
H        1.48724788       0.56568214       1.07946432
H        1.55085147      -2.35964120       0.07654540
H        0.73352609      -1.77501787       1.55472097
H       -0.55283064      -1.86554489      -1.13653179
H       -2.18309339      -0.91317424       0.82651616
H       -1.96694357       1.70335690       0.35582099
H        0.98784671       0.13066567      -1.90027360
