17
Properties=species:S:1:pos:R:3 -1668.7548280112173=T 11.451924=T 12.83518=T -9.6981=T -7.464=T -9.739=T 1.4513=T -0.1453=T 1.277=T 9.21894=T -0.73248=T 6.7755001378=T 0.454197771=T pbc="F F F"
O        0.36343613       0.50020123      -1.30126562
C        1.22328127       0.99120032      -0.26619700
C        2.27205457       1.86255706      -0.94073568
O        3.14005745       2.35906927       0.07118261
C        4.16643207       3.19419444      -0.46881320
C        5.09672143       3.60195292       0.63026975
C        5.45925680       4.86412829       0.87810550
H       -0.32025478      -0.05021114      -0.88611643
H        1.72603324       0.16696973       0.27110162
H        0.66800219       1.59701766       0.47206626
H        1.77495915       2.69266209      -1.48003315
H        2.83325218       1.26393133      -1.68534181
H        3.72679534       4.08538526      -0.95917538
H        4.72679534       2.63023757      -1.24499860
H        5.50067282       2.78252021       1.23344456
H        5.05931618       5.69694353       0.29397699
H        6.17197862       5.10884023       1.66675958
