19
Properties=species:S:1:pos:R:3 -1803.3106116968697=T 11.940073=T 13.08217=T -8.5961=T -6.5592=T -10.098=T 0.8954=T -0.055=T 2.991=T 9.4341=T -2.62786=T 8.010239516=T 11.9566147072=T 0.135005922=T pbc="F F F"
C        1.21837998      -0.02769109      -0.09081668
N        2.67339068       0.08444622      -0.13704026
C        3.35321710      -0.54604378      -1.27486592
C        3.30347615       0.94925753      -1.15697550
C        2.47745178       1.75648387      -2.13828195
C        4.54122659       1.66703085      -0.63103658
N        5.48332030       1.95938473      -1.72453690
H        0.80492475       0.82649969       0.46554409
H        0.96087819      -0.94433024       0.46005282
H        0.72166451      -0.07457175      -1.07842398
H        2.72854571      -0.99965626      -2.05368357
H        4.26530907      -1.10270865      -1.03544663
H        1.69767409       1.16397584      -2.63181392
H        3.14497103       2.16189619      -2.91109851
H        1.99761919       2.60962310      -1.63171090
H        4.95741133       1.05516337       0.19121659
H        4.22961860       2.62988874      -0.19032421
H        5.90817181       1.08717178      -2.05181207
H        6.25098913       2.53698985      -1.37618594
