16
Properties=species:S:1:pos:R:3 -1590.1421606639626=T 10.20708=T 11.27552=T -9.1041=T -7.1152=T -10.572=T 0.7911=T -0.256=T 0.538=T 9.60531=T 0.14645=T 4.3862651206=T 6.2988855552=T 0.139022764=T pbc="F F F"
C        1.25225862      -0.43586064      -0.75745344
N        2.59069754      -0.14320175      -0.28020942
C        3.49393687       0.56897098      -1.00764041
O        3.27380562       1.06756765      -2.11441478
C        4.88334988       0.69694698      -0.34363827
C        5.35410492       2.14497201      -0.34377266
O        4.92711567       0.10332368       0.97133850
H        1.10114744      -1.51870813      -0.88144945
H        1.13579297       0.05456387      -1.73167405
H        0.48998173      -0.04746120      -0.06571123
H        2.94030237      -0.53994096       0.59035710
H        5.56444446       0.09048643      -0.96428861
H        4.71593916       2.75986236       0.31173774
H        5.28267390       2.55751657      -1.35755158
H        6.39385587       2.21181355       0.00323378
H        4.82887298       0.82563861       1.61720678
