13
Properties=species:S:1:pos:R:3 -1176.5881342600453=T 7.758274=T 7.99671=T -8.3754=T -6.2421=T -9.705=T 1.0056=T 0.0232=T 3.655=T 8.98601=T -3.49657=T 7.775100067=T 15.2607796142=T 0.438204052=T pbc="F F F"
C        0.99926028       0.00316381      -0.00954979
N        2.45692178       0.01746249      -0.02557804
C        2.97434962      -0.71375726      -1.17569270
C        2.96674125       1.38302198      -0.00176926
H        0.63204576       0.51867192       0.88964002
H        0.63774041      -1.03492722       0.01894915
H        0.55047269       0.50084128      -0.90057909
H        2.61536804      -1.75275853      -1.14816129
H        4.07333538      -0.72994308      -1.14251143
H        2.66472550      -0.26703625      -2.14915438
H        2.60160417       1.90072501       0.89700365
H        2.65716758       1.97758222      -0.89264867
H        4.06569755       1.36917362       0.03351184
