15
Properties=species:S:1:pos:R:3 -1558.4560710443134=T 10.04452=T 10.98384=T -9.6745=T -7.5483=T -11.104=T 0.3606=T -1.5631=T -0.649=T 10.54208=T 1.25133=T 3.6187297876=T 8.2043272004=T 0.143774033=T pbc="F F F"
C        4.40311717       0.21880974       2.14970319
C        3.19894265       0.37443219       1.21427922
C        3.15669535       1.70754789       0.45757169
C        2.98013750       2.94395343       1.34680091
O        2.59947302       2.89530981       2.49849586
C        4.30289397       1.92679507      -0.52113515
O        4.42537312       2.92857725      -1.20142179
H        4.39060650      -0.77025240       2.62747863
H        4.38639015       0.97462366       2.94564595
H        5.35933889       0.30787210       1.61284655
H        2.27051249       0.28029478       1.79630039
H        3.18870122      -0.44225458       0.47436161
H        2.25376179       1.74796232      -0.18606861
H        3.21200603       3.90948203       0.83744000
H        5.04524015       1.09129669      -0.58485844
