20
Properties=species:S:1:pos:R:3 -1954.0768980243024=T 12.093351=T 13.12804=T -8.6302=T -6.5889=T -10.054=T 0.8705=T -0.0745=T 2.815=T 9.32943=T -2.47583=T 8.2232350654=T 10.6857458086=T 0.132783497=T pbc="F F F"
C        1.01519670      -0.00693902       0.16342528
C        2.53262044      -0.00098437      -0.05866447
C        2.83933249       0.01612467      -1.56550585
C        3.24026284       1.19542311       0.65895699
C        4.34251672       0.55156568       1.54298957
N        4.55631290      -0.82289898       1.05109744
C        3.21693010      -1.23386189       0.61126288
H        0.77248407       0.00413159       1.23713641
H        0.55336032      -0.90527104      -0.27651859
H        0.53820022       0.87035750      -0.29995634
H        3.92313842      -0.03684827      -1.75558318
H        2.46908117       0.94096523      -2.03457347
H        2.36373853      -0.83537953      -2.07715883
H        2.52922470       1.77932950       1.26272306
H        3.67608841       1.88438582      -0.08092844
H        5.28799410       1.11181802       1.54656792
H        3.99788682       0.48702367       2.58910568
H        5.17268645      -0.78679567       0.23318006
H        3.27235378      -2.10757015      -0.05470231
H        2.64028082      -1.53250586       1.50536616
