17
Properties=species:S:1:pos:R:3 -1668.1067446071556=T 14.969012=T 14.24235=T -7.4935=T -5.7062=T -8.157=T 0.7735=T -0.7524=T -0.074=T 7.70014=T 0.62875=T 4.4490392324=T 0.548848873=T pbc="F F F"
C        2.16420265      -1.08236073      -0.05125574
N        3.54777377      -0.64460826       0.06344990
N        3.76879288       0.65423500      -0.26733939
C        4.81500004       1.24366946       0.22846192
C        5.15274678       2.59493888      -0.14609133
C        6.22097121       3.26929758       0.33347038
C        6.58764744       4.67046030      -0.03660896
H        2.12918364      -2.17284214       0.07278294
H        1.80096312      -0.83049123      -1.05565037
H        1.49283857      -0.61367709       0.69150518
H        4.02585532      -0.96817483       0.91501201
H        5.47631940       0.72237131       0.94672170
H        4.47743208       3.07227918      -0.86424179
H        6.87983831       2.76194146       1.04880914
H        5.87254094       5.10070653      -0.75175905
H        7.59274397       4.71515843      -0.48854332
H        6.61993988       5.32438617       0.85106677
