12
Properties=species:S:1:pos:R:3 -1347.6529241649753=T 10.341389=T 11.25537=T -10.4591=T -8.1737=T -10.147=T -0.719=T -2.6889=T -1.414=T 10.49566=T 1.90581=T 3.4024982036=T 6.6782331208=T 0.457760557=T pbc="F F F"
C        1.32165006      -0.56910794      -0.79147288
C        2.48172522      -0.55565160      -0.12893998
C        3.36444230       0.65060471      -0.02019936
C        4.82422194       0.37993645      -0.32463505
O        5.31622956      -0.70816817      -0.55622803
C        5.68273742       1.58719344      -0.30227101
N        6.35366055       2.54290307      -0.29109241
H        0.70322157      -1.46620235      -0.82959703
H        0.94908168       0.31325818      -1.31769646
H        2.83508601      -1.45768495       0.37708847
H        3.34828177       1.06744188       1.00663971
H        3.02204191       1.47595728      -0.66685597
