18
Properties=species:S:1:pos:R:3 -1807.7403700129785=T 11.313431=T 12.26302=T -8.6012=T -6.5209=T -10.186=T 0.8861=T -0.0538=T 3.056=T 9.54489=T -2.88423=T 8.3206756628=T 10.7328728872=T 0.119746893=T pbc="F F F"
C       -1.17176194      -0.00131385       0.99832554
C       -0.63852378      -1.03209800      -0.02279823
C        0.85713010      -1.28864594       0.20877737
C        1.65997144      -0.00067911      -0.08859814
C        0.85791768       1.28693890       0.21234456
C       -0.63787748       1.03193560      -0.01997248
N       -0.76620616       0.00147118      -1.13560482
H       -0.75527725      -0.00284196       2.01953624
H       -2.27093042      -0.00103180       1.04513048
H       -1.20604460      -1.96108626      -0.17980500
H        0.99931621      -1.62813416       1.24817840
H        1.21338423      -2.09952344      -0.44515765
H        1.89112173       0.00073768      -1.16201115
H        2.62087581      -0.00171807       0.44644913
H        1.21469757       2.09943634      -0.43929059
H        1.00026566       1.62342226       1.25270036
H       -1.20485368       1.96167737      -0.17445989
H       -1.75317511       0.00220326      -1.41963410
