20
Properties=species:S:1:pos:R:3 -1887.8602035615145=T 12.049741=T 13.54622=T -9.0797=T -6.9658=T -10.249=T 0.8627=T -0.0844=T 3.114=T 9.48775=T -2.92812=T 8.1419374452=T 11.0817694912=T 0.143440549=T pbc="F F F"
C        1.40507293      -0.97826264       1.81182614
C        2.90322339      -0.70708350       1.66795928
C        3.22633283       0.20211156       0.48399384
N        4.66997882       0.41717054       0.34732806
C        5.04405619       1.29698286      -0.76616590
C        6.55334284       1.20448405      -0.97704358
O        6.95746768      -0.15119045      -1.14405772
H        1.19953035      -1.63087353       2.67157054
H        1.00223096      -1.47303992       0.91492523
H        0.83989418      -0.04530313       1.95897781
H        3.45350967      -1.65369556       1.54506885
H        3.28452600      -0.24324389       2.59492734
H        2.66493946       1.15687306       0.58795991
H        2.87066128      -0.26758736      -0.44931607
H        5.02905449       0.81590371       1.22126219
H        4.73725987       2.35440816      -0.62345578
H        4.53398563       0.92197733      -1.66853718
H        7.07822288       1.66925295      -0.11574248
H        6.84843097       1.75809420      -1.88127784
H        6.36803959      -0.64446845      -0.53257264
