19
Properties=species:S:1:pos:R:3 -1874.4465920103642=T 11.639337=T 13.29261=T -9.5376=T -7.5289=T -11.399=T 0.8902=T -0.0032=T 2.626=T 10.72798=T -2.30379=T 8.9553475982=T 10.574703947=T 0.239122754=T pbc="F F F"
C        2.33951574      -1.48842532      -0.46102707
C        1.87791693      -0.10623412       0.01254111
C        3.00831004       0.78532542       0.50917840
C        3.75363951       0.29216502       1.73013572
O        3.84668139       1.31978949      -0.55948946
C        2.96958529       2.22438300       0.15276189
C        3.60363438       3.34530629       0.93373500
H        1.49812919      -2.05338235      -0.88603809
H        2.75662111      -2.08941001       0.35960323
H        3.10996409      -1.39213742      -1.23954670
H        1.13285254      -0.21178778       0.82018907
H        1.37446119       0.41352581      -0.81732965
H        4.56146473       0.97458913       2.01604326
H        4.20418188      -0.69142482       1.53527412
H        3.06582607       0.18466954       2.58319876
H        2.10183666       2.53884593      -0.44667574
H        4.46469948       3.00794790       1.52239891
H        2.86699064       3.79964791       1.61361586
H        3.95181912       4.13018637       0.24648137
