16
Properties=species:S:1:pos:R:3 -1652.5473450886805=T 11.85509=T 12.99612=T -8.904=T -6.8238=T -9.689=T 0.8871=T -0.0951=T 2.374=T 9.30181=T -1.93739=T 4.3853972186=T 10.7867696014=T 0.600688095=T pbc="F F F"
C        0.94176608       0.00471798      -0.04266809
C        2.15263062      -0.03420260       0.03338174
C        3.60938507      -0.07202815       0.09049970
C        4.26927294       1.19908306       0.69193814
C        5.58768874       0.67792768       1.32390908
C        5.56014347      -0.84512979       1.08015996
N        4.12438568      -1.13278491       0.97850203
H       -0.12710700       0.03927078      -0.09662779
H        3.98513454      -0.19155661      -0.95224725
H        3.60510622       1.62462460       1.45479283
H        4.42922264       1.96026702      -0.08261402
H        6.47862838       1.13924709       0.87712314
H        5.60449023       0.89401988       2.40033215
H        6.11518105      -1.08495004       0.14715809
H        6.01116638      -1.42137874       1.90070201
H        3.93590496      -2.06144725       0.59483827
