17
Properties=species:S:1:pos:R:3 -1660.6475601560362=T 10.940166=T 11.86885=T -9.3173=T -7.0941=T -10.713=T 0.693=T -0.2801=T 0.511=T 9.70667=T 0.13526=T 4.3363731542=T 6.8108857422=T 0.121233375=T pbc="F F F"
C        0.64144715      -0.22334646      -0.13863061
C        2.17385741      -0.26070447      -0.07147662
N        2.81159847      -1.12407308      -1.08406668
C        2.78189520       1.14249850      -0.19028881
C        2.47439752       2.03909869       1.00684555
N        2.41179107       3.38330153       0.72443783
O        2.30187399       1.60694123       2.14458822
H        0.21918010       0.39139493       0.66982585
H        0.22478718      -1.23677432      -0.04173957
H        0.30350983       0.18997730      -1.10351952
H        2.47007304      -0.64943663       0.91604260
H        2.48053040      -0.85684574      -2.01747145
H        2.49699245      -2.08881165      -0.94919517
H        2.45496471       1.62356168      -1.12891120
H        3.87756468       1.03534141      -0.24982082
H        2.68830306       3.74614030      -0.18098518
H        2.36711373       4.02569678       1.51012556
