9
Properties=species:S:1:pos:R:3 -1050.8079667751588=T 12.124684=T 11.9537=T -9.6301=T -7.7693=T -9.543=T -0.759=T -2.3711=T -1.131=T 8.94663=T 1.7202=T 3.7371612148=T 8.635500914=T 0.260144426=T pbc="F F F"
C        0.88843612       0.07860484       0.00198728
C        2.10381037       0.11084577      -0.00068094
C        3.51178540       0.08404442      -0.00365897
N        4.31776074       1.13753376      -0.00905943
C        5.60791091       0.70012787      -0.01042837
N        5.88825173      -0.59725556      -0.00639480
S        4.43032498      -1.41515483      -0.00043018
H       -0.18265511       0.06698132       0.00426909
H        6.42514486       1.42244241      -0.01468368
