13
Properties=species:S:1:pos:R:3 -1302.458956482816=T 11.704347=T 12.47259=T -10.3327=T -8.3612=T -10.28=T -0.1433=T -1.8209=T -0.324=T 9.63289=T 0.68773=T 5.1918641556=T 6.628663518=T 0.465348776=T pbc="F F F"
C        1.81450262      -0.74588858       1.32129235
C        2.39804997      -0.43166213       0.16490096
S        3.32994897       1.08620485       0.01015787
O        2.91857068       1.71527699      -1.25483306
O        3.27285668       1.80297666       1.29396466
C        5.00160570       0.47948233      -0.17409623
C        5.64531140       0.62727453      -1.33176430
H        1.19963873      -1.64195722       1.41731451
H        1.93109226      -0.09635852       2.19095469
H        2.32358391      -1.00571474      -0.76015557
H        5.42364202       0.05126327       0.73656440
H        5.14384865       1.08723104      -2.18549590
H        6.68311842       0.31022152      -1.44424437
