19
Properties=species:S:1:pos:R:3 -1828.8757202613147=T 11.810275=T 12.77803=T -8.33=T -6.2198=T -9.768=T 0.8394=T -0.1311=T 3.191=T 9.12205=T -2.94197=T 7.8776240904=T 10.833400736=T 0.161735177=T pbc="F F F"
C        0.99967691      -0.01520040      -0.04272285
C        2.52191032      -0.01399051       0.05386482
C        3.11218969       1.12820422       0.88959640
C        4.54005560       0.64682786       1.19355500
N        5.44994373       1.05224664       0.10644891
C        4.33752327      -0.88455602       1.38120544
N        3.02420203      -1.20067861       0.77387287
H        0.63810256      -0.88698461      -0.60821872
H        0.63935341       0.88857849      -0.55657053
H        0.55715347      -0.05596643       0.96342717
H        2.92903355       0.05878158      -0.98159106
H        2.53532128       1.21941744       1.82401371
H        3.10939530       2.09703878       0.37347355
H        4.92874909       1.10196289       2.11745285
H        5.13615107       0.64081952      -0.77810044
H        6.38182244       0.66438007       0.27745080
H        5.17411123      -1.43404571       0.91353051
H        4.32918780      -1.15353159       2.45293494
H        3.06201724      -2.02523361       0.17517661
