8
Properties=species:S:1:pos:R:3 -953.8931332138155=T 8.730202=T 9.07646=T -10.6641=T -8.5934=T -11.192=T -1.6498=T -3.65=T -2.159=T 10.64668=T 2.34212=T 3.0278125116=T 11.2263991602=T 0.72362024=T pbc="F F F"
O        0.93071893      -0.05537692       0.00000000
C        2.14995950       0.00211133       0.00000000
C        2.88893459       1.24805185       0.00000000
C        3.53577731       2.28420177       0.00000000
C        4.33071721       3.49519426       0.00000000
O        3.84711920       4.61589659       0.00000000
H        2.78509861      -0.91329737       0.00000000
H        5.43204467       3.32639850       0.00000000
