15
Properties=species:S:1:pos:R:3 -1546.350330055834=T 10.80063=T 12.29511=T -9.9303=T -7.7806=T -11.248=T 0.6778=T -0.3184=T 1.457=T 10.62575=T -1.09477=T 5.380744428=T 11.3699749482=T 0.273203273=T pbc="F F F"
N        1.07538528      -0.12562201       0.38667992
C        2.22218034      -0.11367562       0.17249089
C        3.65565759      -0.07012160      -0.09289186
C        4.27778469       1.31131571       0.19839959
C        5.76120931       1.30919993      -0.08563869
C        6.71787142       2.08648301       0.74636564
N        6.60144982       0.62054572       0.92021698
H        3.81831486      -0.35369414      -1.14551507
H        4.15429288      -0.83004611       0.52915408
H        4.11003884       1.56415546       1.25547951
H        3.77792938       2.08188965      -0.40861829
H        6.03413765       1.17910113      -1.13973757
H        6.34169926       2.67359992       1.58771019
H        7.60845298       2.49246950       0.26094576
H        7.39118571       0.15711944       0.46046892
