13
Properties=species:S:1:pos:R:3 -1389.414300599591=T 11.207602=T 10.89972=T -8.5845=T -6.6747=T -8.976=T 0.0476=T -1.6226=T -0.329=T 8.47815=T 0.79724=T 4.6093283332=T 5.050259745=T 0.300661579=T pbc="F F F"
C        0.90078737       0.04143000       0.17552821
C        2.23064655       0.07063544      -0.04324869
C        3.11927938       1.23163637       0.05949689
N        4.34860779       1.00886404      -0.28240599
N        4.45695300      -0.33263198      -0.79456820
C        4.37336088      -1.29521418       0.32036860
C        3.14279466      -1.00687102      -0.49650605
H        0.32315541      -0.87845107       0.08607063
H        0.36057856       0.94741270       0.45104482
H        2.82647337       2.21639129       0.43044304
H        4.89294879      -2.24102473       0.15603962
H        4.43211559      -0.87914490       1.32835270
H        2.80454867      -1.75218196      -1.21728559
