16
Properties=species:S:1:pos:R:3 -1575.7932981097006=T 12.09724=T 12.65133=T -9.5138=T -7.3995=T -9.448=T 1.3527=T -0.5484=T 0.292=T 8.9026=T 0.22974=T 5.3342992724=T 6.5774820972=T 0.727576651=T pbc="F F F"
C        0.85167574      -0.15280245       1.15203884
C        1.64238221      -0.08260592       0.07550167
C        2.70105553       0.96194723      -0.13995596
C        4.10214704       0.39017502      -0.33893922
O        4.10131951      -0.33835508      -1.58616780
N        5.35908158      -0.93370948      -1.76914370
C        5.41199748      -1.58325904      -2.87267977
H        0.09752797      -0.93407144       1.25681487
H        0.93010188       0.57290174       1.96639925
H        1.53534657      -0.82745656      -0.71971004
H        2.73418974       1.64744917       0.72142002
H        2.45264802       1.57035695      -1.02722539
H        4.37575427      -0.29413422       0.47975628
H        4.84982484       1.19814083      -0.39378298
H        6.35837490      -2.07816636      -3.09054634
H        4.57032272      -1.65260039      -3.57173972
