19
Properties=species:S:1:pos:R:3 -1831.3706672793815=T 10.993155=T 12.16781=T -9.7442=T -7.5795=T -11.579=T 0.7885=T -0.2187=T 2.492=T 11.20022=T -2.17434=T 9.0900583872=T 12.2144311956=T 0.090910776=T pbc="F F F"
C        0.90953329      -0.07884072      -0.01433838
C        2.42082372       0.07982891       0.09264360
O        3.10002660      -0.70364111      -0.91726756
C        2.95750798       1.53945747       0.06575320
C        2.54895373       2.29362856      -1.20991941
C        2.52517345       2.30872534       1.31401371
O        4.39505801       1.45554368       0.12786865
H        0.39193436       0.45105676       0.79722081
H        0.64293168      -1.14243556       0.04950278
H        0.52824077       0.31483501      -0.96984158
H        2.77317742      -0.35735494       1.04167451
H        2.65878873      -0.52977253      -1.76888507
H        2.87316654       1.75497715      -2.11379620
H        3.04567928       3.27297486      -1.22009283
H        1.46279585       2.45688451      -1.26916942
H        2.76883831       1.74066513       2.22304550
H        1.44899693       2.52783101       1.30556814
H        3.06888027       3.26259766       1.35581573
H        4.62885309       0.69845882      -0.44666619
