15
Properties=species:S:1:pos:R:3 -1445.1220078882272=T 9.510094=T 10.57761=T -9.3209=T -6.9765=T -10.669=T 0.9834=T 0.0071=T 3.189=T 10.06699=T -2.89181=T 8.6793051678=T 11.068912143=T 0.212912187=T pbc="F F F"
N        2.85055181      -1.08635297      -0.60645367
C        2.35630354       0.05765768       0.18088931
C        3.36828626       1.17995554       0.20904273
C        3.56735830       2.07581943      -1.00049656
C        2.92157311       2.60977314       0.25564197
O        3.64834900       3.46678617       1.11305875
H        2.16240589      -1.84278187      -0.58109686
H        3.69741633      -1.46180294      -0.17027193
H        2.08558642      -0.19753099       1.22627788
H        1.43374065       0.41696925      -0.30519012
H        4.27426317       0.98450589       0.79090421
H        2.94073081       1.89585255      -1.87552260
H        4.58471245       2.40580604      -1.21316830
H        1.84075271       2.79646345       0.23167319
H        3.68073955       4.34356964       0.69115200
