16
Properties=species:S:1:pos:R:3 -1625.04912380355=T 11.167984=T 12.22407=T -8.9136=T -6.7355=T -8.886=T 1.0769=T 0.155=T 1.441=T 8.39305=T -0.80137=T 6.169667346=T 0.397349206=T pbc="F F F"
C        0.84786456       0.06721354      -0.01700823
C        2.34169863       0.00251651       0.08254251
C        3.16964569       1.04052506      -0.10689229
C        4.65336730       1.01112123      -0.04083725
C        5.45167265      -0.26144854      -0.17376726
C        5.47580625       0.75024595      -1.29523183
H        0.46763451      -0.62267715      -0.78817703
H        0.50217671       1.08048565      -0.26661746
H        0.37235276      -0.23451544       0.93036263
H        2.76978399      -0.97472728       0.33346197
H        2.73141129       2.02021821      -0.33860969
H        5.08525443       1.76847329       0.62123352
H        4.91212882      -1.19199264      -0.35192436
H        6.34381350      -0.36913830       0.44355230
H        6.38061053       1.33929391      -1.44980359
H        4.92416839       0.50329601      -2.20318394
