10
Properties=species:S:1:pos:R:3 -1149.3226945206573=T 11.369563=T 11.29432=T -9.84=T -7.8529=T -10.15=T -0.5105=T -2.2053=T -1.434=T 9.493=T 2.04956=T 3.3909427084=T 5.613156185=T 0.333157364=T pbc="F F F"
O        2.69812494      -1.13626205       0.02782757
C        2.16057508      -0.03856575      -0.00437479
C        2.89112227       1.23879498      -0.00250142
C        2.29273410       2.48951327      -0.03798672
S        3.50767488       3.69337485      -0.02117067
N        4.80235279       2.60902432       0.03167432
C        4.31506438       1.38033590       0.03596992
H        1.04663635       0.05858768      -0.03684223
H        1.23191337       2.72761805      -0.07164876
H        5.00568182       0.53656875       0.06798279
