12
Properties=species:S:1:pos:R:3 -1257.2550000296542=T 8.189672=T 8.87752=T -9.618=T -7.5062=T -10.68=T 0.7193=T -1.1119=T -0.051=T 9.84334=T 0.74361=T 3.6884347168=T 7.4384408812=T 0.090866524=T pbc="F F F"
O        1.00414231      -0.04071776      -0.30289846
C        2.39292912       0.04488063      -0.12681915
C        3.05159223       1.06630358       0.87228675
C        4.10305532      -0.01427154       1.26939377
C        3.10387659      -1.03081943       0.70150146
O        2.73893932      -2.13503430       1.04472532
H        0.68744712      -0.76830682       0.26671307
H        2.87681479       0.15528459      -1.11396243
H        2.36800231       1.28805731       1.70176266
H        3.42469004       1.99661285       0.43013667
H        5.02439903       0.04447335       0.67268647
H        4.35976184      -0.13898247       2.32798386
