20
Properties=species:S:1:pos:R:3 -1936.2738453446375=T 12.677505=T 14.40518=T -8.5572=T -6.4984=T -9.891=T 0.9759=T 0.0899=T 3.333=T 9.15507=T -3.04947=T 8.0158064874=T 11.7857248034=T 0.288806662=T pbc="F F F"
C        1.02792887       0.98742424      -0.71020486
C        2.37084612       1.03400604       0.00931303
N        3.38622012       1.70676985      -0.80973063
C        4.67143015       1.80532861      -0.16304027
C        5.64145077       0.65846316      -0.35889314
C        5.89448285       1.99321658      -1.02666365
C        7.03313708       2.87889943      -0.57434419
H        0.27924701       0.45742646      -0.10466758
H        1.12256035       0.47514162      -1.67811902
H        0.64236650       2.00179367      -0.89957750
H        2.73066620       0.00958844       0.20092815
H        2.24525647       1.51267087       1.00558360
H        3.05410609       2.64495300      -1.05359633
H        4.70518827       2.28918132       0.82743813
H        5.30121373      -0.16493722      -0.98750853
H        6.27878054       0.37712276       0.48125158
H        5.67821669       2.01164875      -2.09794324
H        7.17068914       2.82149831       0.51582677
H        6.85156146       3.93358715      -0.83339433
H        7.98219161       2.57646695      -1.04300799
