19
Properties=species:S:1:pos:R:3 -1875.926878154493=T 12.403056=T 13.63375=T -8.543=T -6.4939=T -9.087=T 0.9292=T 0.03=T 1.347=T 8.47052=T -0.75998=T 6.2065159852=T 0.348917248=T pbc="F F F"
C        4.21043502       0.10575343       0.52825684
C        5.48172410       0.81111039       0.09782744
O        5.26012870       2.22653637       0.19648336
C        6.29318529       3.05149697      -0.17020232
C        7.50302181       2.64440836      -0.60031238
C        5.88451581       4.49442875      -0.03173678
C        4.73848980       4.89647441      -0.97147475
H        4.34893500      -0.98249494       0.46559640
H        3.36874245       0.38472958      -0.12030951
H        3.95123914       0.36217696       1.56450057
H        5.74735231       0.55728724      -0.94404781
H        6.33337368       0.53142110       0.74369444
H        7.78485748       1.59868980      -0.69928989
H        8.24861592       3.39160557      -0.86391051
H        6.76821091       5.12116476      -0.21734302
H        5.57763146       4.66892090       1.01347906
H        5.02927799       4.76237564      -2.02357206
H        4.46769980       5.95137219      -0.82353459
H        3.84543331       4.28532251      -0.78436451
