13
Properties=species:S:1:pos:R:3 -1444.502281321904=T 9.626246=T 10.15378=T -9.3544=T -7.2519=T -9.714=T 1.0677=T -0.7097=T 0.083=T 10.26869=T 0.52532=T 4.3349349166=T 6.1962375458=T 0.208234385=T pbc="F F F"
O        0.99565209      -0.08699976       0.62075768
C        2.14077155      -0.03506495       0.24039564
C        2.85196404       1.20596726      -0.25582278
C        4.32638269       1.26934183       0.16354545
C        4.96935195      -0.05921431      -0.10484584
C        4.23238520      -1.17421438      -0.10711842
O        2.87275092      -1.21873981       0.18865075
H        2.27164697       2.07353908       0.07877716
H        2.79169417       1.16870079      -1.35745092
H        4.41289588       1.52966988       1.23405679
H        4.83446678       2.07333414      -0.38868937
H        6.03850829      -0.13836335      -0.29869696
H        4.61343948      -2.17675644      -0.29662920
