18
Properties=species:S:1:pos:R:3 -1690.8002509368027=T 10.781324=T 11.89403=T -9.5032=T -7.2379=T -10.594=T 0.7876=T -0.1981=T 2.88=T 9.91435=T -2.59349=T 8.3968402626=T 13.6272516656=T 0.079122435=T pbc="F F F"
C        1.19038354       1.74690951      -1.65489777
O        2.57723739       1.87733127      -1.37933400
C        2.92055190       1.36396641      -0.09451949
C        4.43299517       1.48761674       0.10216547
N        5.23968006       0.84066137      -0.94964979
C        4.89970722       2.95007429       0.19807484
O        6.31224905       3.00901013       0.35249864
H        1.01913589       2.15782974      -2.65776930
H        0.57794617       2.30897557      -0.92521698
H        0.87187961       0.68725444      -1.63760564
H        2.61400751       0.29989817      -0.01937843
H        2.38300834       1.92384811       0.69902775
H        4.68619532       0.99825062       1.05769906
H        4.81491870       1.04231104      -1.86022000
H        5.23657527      -0.17478901      -0.83805745
H        4.44569879       3.43726151       1.07515771
H        4.56964243       3.49901008      -0.70527110
H        6.63417765       2.29568999      -0.24268351
