15
Properties=species:S:1:pos:R:3 -1617.259811872472=T 10.282849=T 11.24225=T -8.9804=T -6.9473=T -10.394=T 1.3985=T -0.3815=T 0.453=T 9.4848=T 0.30037=T 3.8460209228=T 12.060180213=T 0.182809216=T pbc="F F F"
O        1.08474744       0.02043254       0.07591440
C        2.29903358       0.03013607       0.03092506
C        3.27429161      -1.16738981       0.06764796
C        4.58700539      -0.36729748      -0.02798146
C        4.25448098       0.66559533      -1.14446544
C        3.24720277       1.21566859      -0.07600613
C        4.33066552       0.79448248       0.97632192
H        3.09694703      -1.84621725      -0.77967954
H        3.16104880      -1.73924488       1.00055692
H        5.52736044      -0.93071391      -0.02757474
H        3.84917208       0.29700550      -2.09846843
H        5.07362350       1.37538649      -1.32166133
H        2.79548062       2.21143677      -0.12028083
H        5.15732397       1.51689396       1.00726499
H        3.99628628       0.54578558       1.99444666
