12
Properties=species:S:1:pos:R:3 -1361.0112418236447=T 10.177854=T 10.6742=T -8.9814=T -6.9477=T -9.259=T 0.6142=T -1.0902=T -0.257=T 8.8363=T 0.74622=T 4.8651610456=T 11.6309902754=T 0.296923702=T pbc="F F F"
N        0.96299261       0.01294780       0.13348098
C        2.13255549      -0.02414400       0.05711685
C        3.53804583      -0.01605094      -0.03227010
C        4.34260453      -1.09977667      -0.12912039
O        5.66603235      -0.83566105      -0.18391687
C        5.80896513       0.63110450      -0.24201001
C        4.41333813       1.22794292       0.03418979
H        4.07370640      -2.15376813      -0.15629227
H        6.17843983       0.86887163      -1.24945366
H        6.56786251       0.90653849       0.49974880
H        4.13011629       1.97703980      -0.71769781
H        4.34522088       1.70320563       1.02482470
