15
Properties=species:S:1:pos:R:3 -1473.6025114876002=T 14.711415=T 14.98965=T -7.7416=T -5.9742=T -8.705=T 0.9588=T -0.6808=T -0.08=T 7.82038=T 0.83615=T 3.2176970706=T 10.7175234204=T 0.685207091=T pbc="F F F"
N        1.93308142       1.61168256       0.83073615
C        2.38789308       2.88979463       0.58790358
S        1.48301809       4.25063764       0.99020939
N        3.63396226       2.98876674       0.04550083
C        4.55227543       1.89063169      -0.25433183
C        5.97780269       2.36140703      -0.20149167
C        6.81561424       2.32740134      -1.24252623
H        2.23597125       0.85261151       0.22370626
H        0.95450831       1.58525942       1.10212899
H        3.93091534       3.94054836      -0.15262577
H        4.34263041       1.44376582      -1.24464526
H        4.40490987       1.10820117       0.50978210
H        6.31272470       2.75392973       0.76421397
H        6.49899762       1.94690856      -2.21696952
H        7.84654528       2.67172380      -1.15463100
