17
Properties=species:S:1:pos:R:3 -1690.4780686568577=T 10.351642=T 11.51965=T -9.5541=T -7.3912=T -11.575=T 0.9396=T -0.0594=T 2.867=T 10.81656=T -2.58115=T 9.3683697614=T 11.7986565432=T 0.085682814=T pbc="F F F"
O        1.86424888      -0.26604922      -1.31991726
C        2.22881036       0.12289545       0.01184674
C        3.16057251       1.32521168      -0.07477274
C        2.48789019       2.56424108      -0.72848713
C        2.71579730       3.68126629       0.29893866
O        2.77046473       3.01682459       1.56843217
C        3.55535237       1.84343317       1.33095723
H        1.24687053      -1.01384366      -1.25636924
H        2.74244831      -0.70734878       0.53328915
H        1.33446124       0.39905387       0.60414439
H        4.05628751       1.02364424      -0.63916446
H        1.41363077       2.37611780      -0.86791821
H        2.91233152       2.80293379      -1.71251709
H        3.67157946       4.21006731       0.10621603
H        1.90721932       4.42300866       0.34650903
H        4.63373464       2.09415965       1.36129265
H        3.34150038       1.13181409       2.14208006
