17
Properties=species:S:1:pos:R:3 -1775.483217918669=T 13.537682=T 15.57057=T -9.1838=T -6.9426=T -8.803=T 0.9191=T 0.0416=T 1.321=T 8.43321=T -0.69049=T 4.1357638062=T 10.1972781644=T 0.752961934=T pbc="F F F"
C        0.83295783       0.49904130      -1.01432015
C        2.32998762       0.55223721      -0.99418591
C        3.06749654       1.15287512      -0.05260795
C        4.57853623       1.18718877      -0.04625880
C        5.12290705       2.54507636      -0.01645660
C        5.55728138       3.68049512       0.01626704
C        6.08416574       5.03716598       0.04829574
H        0.43270486       0.96991775      -1.92686795
H        0.39822161       1.01263764      -0.14561014
H        0.47081722      -0.54164145      -1.01487625
H        2.84598501       0.05727009      -1.82673937
H        2.57302995       1.66551918       0.78027496
H        4.96265558       0.64966302      -0.92957972
H        4.95477942       0.63708881       0.83622194
H        5.30814068       5.77146600      -0.21562669
H        6.91356681       5.15874645      -0.66471577
H        6.46308649       5.29605264       1.04850559
