13
Properties=species:S:1:pos:R:3 -1345.9123900741731=T 10.174168=T 10.59482=T -8.6605=T -6.7104=T -8.993=T 0.9545=T 0.0293=T 0.239=T 8.41266=T 0.31136=T 4.762550232=T 6.281378732=T 0.298384324=T pbc="F F F"
C        0.89493443      -0.07111060      -0.07822039
C        2.38313539       0.08142599       0.00918759
C        3.14004315       1.23840578      -0.22528072
N        4.42473779       0.86173680      -0.02850914
O        5.52122091       1.70354723      -0.14978857
N        4.60315913      -0.40765161       0.30989803
C        3.34025023      -0.89928364       0.33482578
H        0.37044731       0.68040822       0.52985898
H        0.58903018      -1.06158040       0.28421569
H        0.53257860       0.02907637      -1.11261680
H        2.87862980       2.25323655      -0.50234854
H        6.25960370       1.09362073       0.06719806
H        3.18133938      -1.94416143       0.58800003
