13
Properties=species:S:1:pos:R:3 -1455.0858186276703=T 11.36636=T 10.85241=T -8.1562=T -6.3288=T -8.38=T 0.7225=T -0.7657=T 0.223=T 7.99241=T 0.38004=T 4.2609152746=T 6.3580888702=T 0.450190053=T pbc="F F F"
N        0.99702482      -0.01999870       0.24799633
C        2.37850417      -0.00606129       0.05530179
C        3.10470643       1.19319146      -0.03960903
C        4.49078025       1.13370830      -0.16802638
C        5.12230087      -0.11265279      -0.19691530
N        4.44681991      -1.27172370      -0.10671362
C        3.11761408      -1.20827276       0.01614679
H        0.50017143       0.79909671      -0.09246318
H        0.53326963      -0.88412845      -0.02144250
H        2.58596115       2.15435480      -0.00990867
H        5.07873837       2.04967459      -0.24628999
H        6.20820703      -0.18801293      -0.29762510
H        2.58786186      -2.16593522       0.09076888
