16
Properties=species:S:1:pos:R:3 -1645.2842400626207=T 10.812086=T 11.51283=T -8.9821=T -6.8473=T -9.097=T 1.4083=T -0.0165=T 1.466=T 8.47338=T -0.81043=T 6.3364161174=T 0.407227326=T pbc="F F F"
C        1.07193576      -0.02224206       0.37557265
C        2.35438651       0.00473575      -0.00752354
C        3.22504541       1.24852965      -0.12147557
C        4.47506343       0.78304354      -0.89188245
C        4.63979513      -0.68093382      -0.44876451
C        3.19139044      -1.20365755      -0.40491297
H        0.51883334      -0.96074668       0.45185987
H        0.53076280       0.89266477       0.62593944
H        3.51526078       1.58127792       0.89060618
H        2.69985585       2.08956210      -0.59637143
H        4.28371058       0.82254114      -1.97715674
H        5.36137916       1.40071454      -0.69011074
H        5.28960054      -1.26606974      -1.11462116
H        5.08272724      -0.71587590       0.56063589
H        2.88690739      -1.53929425      -1.41174914
H        3.04951564      -2.05710939       0.27339422
