20
Properties=species:S:1:pos:R:3 -1940.2866692980954=T 12.491729=T 14.12413=T -9.1826=T -6.887=T -10.531=T 0.9155=T -0.0079=T 3.225=T 9.94604=T -2.91628=T 8.6523382128=T 12.0520715286=T 0.249902224=T pbc="F F F"
C        1.02542118      -0.06385063       0.03240434
C        2.53768308      -0.03446651      -0.02222578
C        3.33848034      -0.70047049      -1.13002141
C        2.69040918      -1.45256445      -2.27225740
C        3.27398090       0.81328062      -1.03589581
C        4.49183124       1.61659889      -0.64320100
N        5.32104341       1.91161923      -1.82403592
H        0.64178733       0.77015447       0.63979210
H        0.65706922      -0.99965507       0.48119177
H        0.57473643       0.02671913      -0.96555447
H        3.01409495      -0.08460441       0.96256156
H        4.28340867      -1.13947556      -0.79034614
H        1.76778780      -0.96404202      -2.61446952
H        2.43345929      -2.48335580      -1.98162600
H        3.36733501      -1.50910175      -3.13836267
H        2.64732640       1.29711145      -1.79267284
H        5.02742205       1.07120025       0.16306200
H        4.17368341       2.58149568      -0.21229933
H        5.67605853       1.03489480      -2.21597491
H        6.14100157       2.45784215      -1.54965858
