15
Properties=species:S:1:pos:R:3 -1443.9747832200985=T 9.326108=T 10.28981=T -9.477=T -7.1736=T -10.84=T 0.8646=T -0.1526=T 2.698=T 10.23879=T -2.39565=T 8.5823233186=T 13.3883554408=T 0.09789273=T pbc="F F F"
C        0.80938607       0.08935401      -0.31117517
C        2.25151433      -0.07971046       0.10633955
C        2.54486640       0.03279003       1.59456263
N        1.87205990      -1.03539469       2.35388139
C        3.18613222      -0.82920678      -0.74918982
O        3.21841608       0.61578791      -0.72423207
H        0.71719601       0.05219525      -1.40403766
H        0.41823698       1.05864004       0.03481404
H        0.18514446      -0.71008075       0.11507363
H        2.27656232       1.05927133       1.91955349
H        3.63037009      -0.07264003       1.73349393
H        0.87932904      -0.81648064       2.46752361
H        2.25806680      -1.07703298       3.29888317
H        2.82648335      -1.26844055      -1.68635056
H        4.05098595      -1.32548170      -0.29537018
