18
Properties=species:S:1:pos:R:3 -1772.7440937461188=T 11.349914=T 12.29564=T -8.9995=T -7.0733=T -10.06=T 0.7489=T -0.174=T 0.463=T 9.68482=T 0.16603=T 4.3302234486=T 12.3901317562=T 0.29668413=T pbc="F F F"
C        1.03415501      -0.16986652      -0.05676268
C        2.51937804       0.12566295      -0.29033290
C        3.32579782      -1.14034928      -0.59916040
N        2.71133138       1.15744924      -1.32872304
C        2.28406354       0.90477055      -2.69468790
C        3.29890489       2.34909473      -0.99182061
O        3.69789889       2.66781095       0.12532068
H        0.48091057       0.75367583       0.16275605
H        0.92076885      -0.84639842       0.80206470
H        0.56749352      -0.66095049      -0.92423358
H        2.93228039       0.59457781       0.61525848
H        2.95089267      -1.66175004      -1.49291987
H        3.25383238      -1.84192938       0.24383383
H        4.38689143      -0.90079270      -0.75299820
H        2.81632465       0.04748144      -3.13553203
H        2.50419241       1.79155067      -3.30350104
H        1.20154090       0.71251861      -2.75197917
H        3.38041267       3.02884408      -1.87221233
