17
Properties=species:S:1:pos:R:3 -1670.3187661030781=T 10.749452=T 12.0481=T -9.2821=T -7.1392=T -10.875=T 0.9075=T -0.0305=T 3.008=T 10.55728=T -2.67308=T 8.5482271686=T 10.5926447212=T 0.204648763=T pbc="F F F"
C        1.93799928      -0.44458972      -1.24112715
O        1.75903240       0.64915507      -0.34148145
C        2.98266088       1.23342942       0.01446013
C        3.62969056       2.26198516      -0.90679566
C        2.98553988       2.67515218       0.41051656
C        1.70612904       3.47600573       0.41146549
O        3.86030069       2.94453541       1.49647697
H        0.93780059      -0.82922126      -1.47646765
H        2.53699198      -1.25022600      -0.77906602
H        2.43651788      -0.12237215      -2.17249444
H        3.66322120       0.58249110       0.57791866
H        3.09275651       2.51763051      -1.82199645
H        4.71838645       2.26825081      -0.96917891
H        1.02318753       3.12712013      -0.37283272
H        1.91583373       4.54395165       0.24341743
H        1.20072312       3.36857781       1.38174165
H        4.22018828       3.84032416       1.36155355
