15
Properties=species:S:1:pos:R:3 -1461.3883364001565=T 11.07873=T 11.81934=T -8.2097=T -6.2174=T -9.643=T 1.1176=T 0.0357=T 0.651=T 8.97016=T -0.07374=T 5.640619084=T 11.9767500336=T 0.214532637=T pbc="F F F"
O        1.74975075      -0.25182129       1.37729674
N        2.70812576      -0.08086966       0.32479868
C        3.27867986       1.06796775       0.44106482
N        4.14977554       1.53256182      -0.53083725
C        5.26731746       2.34990679      -0.12730475
C        5.74472330       3.39875010      -1.09819033
C        5.00543181       3.81112108       0.15276701
H        1.42236870      -1.14865546       1.19079789
H        3.07399904       1.75270417       1.27327380
H        4.36674453       0.82658073      -1.23658465
H        6.03368970       1.86507549       0.49002958
H        5.20332289       3.47424634      -2.04128163
H        6.81684056       3.58415591      -1.15849781
H        5.56488105       4.28163899       0.96105265
H        3.97945905       4.15824724       0.03092526
