16
Properties=species:S:1:pos:R:3 -1643.7506565554634=T 11.175624=T 11.95905=T -8.7332=T -6.7008=T -8.535=T 1.4357=T -0.1864=T 1.326=T 8.04397=T -0.65806=T 5.4753705432=T 11.2965256418=T 0.209055881=T pbc="F F F"
C        0.87156984      -0.14756676      -0.08440188
C        2.32768158       0.20562360       0.16538378
C        3.52801735      -0.64690392      -0.39217443
N        4.42027493       0.59316354      -0.25972483
C        3.11325785       1.27343084      -0.68436019
C        2.99545780       0.69958650      -2.10106881
C        3.27582444      -0.59855824      -1.90351428
H        0.21231236       0.67110985       0.24172304
H        0.58709119      -1.04511005       0.48550312
H        0.68091334      -0.34075890      -1.14899786
H        2.48973870       0.40384281       1.23987939
H        3.86884241      -1.58370845       0.06633223
H        4.51868157       0.76877249       0.75474738
H        3.01801928       2.35604392      -0.53322819
H        2.75981717       1.24532098      -3.01099427
H        3.33690020      -1.42716819      -2.60421419
