21
Properties=species:S:1:pos:R:3 -2068.1666661396735=T 12.921534=T 14.68649=T -9.7594=T -7.5964=T -10.937=T 0.948=T 0.0944=T 3.031=T 10.5437=T -2.68605=T 8.9917374892=T 11.4059184896=T 0.150430034=T pbc="F F F"
C        3.10401119      -1.10986819      -0.60733982
C        2.44598942       0.10600385       0.05895527
C        1.87445286      -0.25670482       1.43641533
C        3.41827657       1.26962349       0.15946756
C        3.65148655       2.18753073      -1.02135902
C        2.92916382       2.69779446       0.20813160
C        3.58192597       3.71631660       1.11457855
H        3.49334335      -0.85569181      -1.60391946
H        2.38923398      -1.93892377      -0.71950890
H        3.94788485      -1.47681649      -0.00100662
H        1.60671994       0.43360899      -0.58331573
H        2.67592516      -0.58969987       2.11549573
H        1.14088005      -1.07347400       1.36158895
H        1.37797367       0.60706392       1.90220171
H        4.30300339       1.05988900       0.77297225
H        3.06573933       2.00925272      -1.92573174
H        4.66450443       2.55181988      -1.20327296
H        1.84681756       2.81693823       0.09085436
H        4.66562222       3.53899845       1.18843227
H        3.16772529       3.67252265       2.13386595
H        3.43873036       4.74080599       0.73716471
