17
Properties=species:S:1:pos:R:3 -1692.1305419337903=T 12.385473=T 13.19228=T -9.0999=T -7.0912=T -9.646=T 0.7019=T -0.3085=T 0.973=T 9.20019=T -0.37943=T 5.0182341612=T 6.6687233946=T 0.413041805=T pbc="F F F"
N        1.71448514      -0.69442580       1.69549116
C        2.05006951      -0.65193636       0.34395711
N        1.73572607      -1.52230076      -0.55216490
C        2.97480680       0.48725141      -0.03519744
C        4.45994543       0.11560334       0.17944116
C        5.39138865       1.20757604      -0.25587863
C        6.28920504       1.81421762       0.52913454
H        1.71631096       0.18610064       2.20291250
H        0.96106977      -1.32289515       1.96190234
H        1.14213948      -2.26830116      -0.16101198
H        2.73781011       1.39591669       0.54245376
H        2.80109726       0.70938041      -1.09672159
H        4.65686849      -0.79756210      -0.40781081
H        4.63924928      -0.13324347       1.23726085
H        5.30830986       1.51654238      -1.30521461
H        6.40573531       1.53611205       1.58025759
H        6.94297285       2.60052423       0.14878895
