10
Properties=species:S:1:pos:R:3 -1119.288755561537=T 8.779069=T 9.6503=T -10.2349=T -8.1267=T -10.442=T 0.4608=T -1.4471=T -0.603=T 10.1485=T 1.13829=T 3.6542517766=T 10.1062724404=T 0.458158134=T pbc="F F F"
C        0.96893346       0.00726059       0.00013804
C        2.41841438      -0.02140268       0.00008131
C        3.63641176      -0.02842499       0.00002219
C        5.08084756       0.02016752      -0.00004859
O        5.69318059      -1.20846100      -0.00003341
O        5.73549012       1.04053760       0.00001943
H        0.59620568       1.04130868       0.01162892
H        0.56871180      -0.51275955       0.88262872
H        0.56947449      -0.49246018      -0.89436776
H        4.99747017      -1.89543600      -0.00007885
