19
Properties=species:S:1:pos:R:3 -1768.4548604170172=T 11.52411=T 12.86834=T -9.1474=T -6.8107=T -10.586=T 0.8127=T -0.1994=T 2.963=T 10.15977=T -2.68041=T 8.7148891498=T 9.8046145024=T 0.089985823=T pbc="F F F"
N        1.12628029       0.11151154      -0.97705290
C        2.57485134       0.09283395      -0.70074221
C        3.05493393       1.49115130      -0.31289252
C        4.53095900       1.54715317       0.05954765
O        5.32575811       1.18832485      -1.07219195
C        4.95478556       2.93932808       0.55023252
N        6.42287852       2.96509212       0.68175118
H        0.80803465      -0.83526524      -1.19752557
H        0.95093098       0.66494698      -1.82116142
H        3.19215680      -0.27836861      -1.53963479
H        2.74209318      -0.59110345       0.14858904
H        2.44807372       1.84958807       0.53531314
H        2.88557915       2.18623870      -1.15491405
H        4.71469680       0.82227698       0.88594971
H        6.20107446       1.59097135      -0.87250627
H        4.41042376       3.19131347       1.47958622
H        4.67474178       3.67781374      -0.21774255
H        6.71301484       2.53948384       1.56566636
H        6.77471313       3.92310915       0.68488840
