20
Properties=species:S:1:pos:R:3 -1945.362677649667=T 13.153434=T 14.25591=T -9.0076=T -6.8869=T -9.001=T 0.8509=T -0.0712=T 1.467=T 8.46304=T -0.81419=T 6.2964802268=T 0.390347846=T pbc="F F F"
C        0.88039824       0.93111160      -1.02878626
C        2.37620316       0.83152863      -1.06405783
C        3.18891345       1.23170895      -0.07742600
C        4.70350295       1.15736643      -0.03916576
C        5.12088948       0.25539485       1.13983419
C        5.31166149       0.61284899      -1.34382665
N        5.17346166       2.52981630       0.28288797
H        0.41291788      -0.06108212      -1.13640336
H        0.50257008       1.54501452      -1.86242014
H        0.52675297       1.37584079      -0.08821412
H        2.80535997       0.39389198      -1.97213798
H        2.75288908       1.67847937       0.82480510
H        4.69550957       0.63370119       2.07938912
H        6.21791964       0.24046354       1.24201984
H        4.77695420      -0.77613117       0.98371208
H        5.04441031       1.24854735      -2.20107629
H        4.97862475      -0.41398897      -1.55972154
H        6.40899352       0.59699333      -1.26321781
H        4.93864854       3.15435327      -0.49425801
H        6.19612906       2.52717118       0.35145345
