10
Properties=species:S:1:pos:R:3 -1147.723980874741=T 9.465468=T 10.43592=T -11.0741=T -8.9646=T -11.46=T 0.7593=T -1.2034=T 0.508=T 11.17977=T -0.28776=T 5.3078282614=T 11.5915007344=T 0.19375482=T pbc="F F F"
N        1.00917451      -0.01734328      -0.25521995
C        2.16783975       0.02694563      -0.11751684
C        3.60038493       0.04125034       0.03318891
N        4.45531111      -0.68796754      -0.92299900
C        4.41021774       0.78496021      -1.00482919
C        5.60003400       1.49891460      -0.60758949
N        6.54329053       2.10163051      -0.27983194
H        3.96369695       0.03073801       1.06328388
H        3.88223078      -1.08352638      -1.67720174
H        3.84564969       1.25623790      -1.81331464
