19
Properties=species:S:1:pos:R:3 -1877.773588020331=T 12.29626=T 13.41051=T -8.4162=T -6.4166=T -9.034=T 0.9151=T 0.0196=T 1.349=T 8.44343=T -0.7734=T 6.1508710684=T 0.3285146=T pbc="F F F"
C        1.01228808      -0.46978952       0.06341334
C        2.50316872      -0.32332220      -0.23072350
C        2.92553273      -1.04515252      -1.50313579
O        2.84504921       1.07274380      -0.43176448
C        3.03317196       1.87594526       0.66400136
C        3.35215104       3.27186968       0.21407738
C        2.95815642       1.50322204       1.95657539
H        0.71764198       0.12342251       0.93847278
H        0.76406908      -1.52264106       0.26058958
H        0.42261725      -0.13161976      -0.80123947
H        3.10042943      -0.70375720       0.61679649
H        2.37930006      -0.64648574      -2.37027286
H        2.70676171      -2.11877608      -1.41966725
H        4.00178704      -0.92078048      -1.68207236
H        4.24306299       3.27310591      -0.43147101
H        3.53255270       3.92684516       1.07380372
H        2.52042704       3.68222076      -0.37818086
H        2.71118226       0.49571313       2.28309804
H        3.15456029       2.24379631       2.72872951
