18
Properties=species:S:1:pos:R:3 -1788.842756119599=T 12.499294=T 13.50271=T -8.6541=T -6.6989=T -9.235=T 1.3441=T -0.0432=T 1.311=T 8.75571=T -0.71862=T 6.3990042502=T 0.401515975=T pbc="F F F"
C        0.99770530       0.13773670      -0.02835369
C        2.50031390       0.03880992       0.01029220
C        3.31871928      -0.75463783      -0.99292080
C        2.73380023      -1.53615451      -2.10934154
C        2.18497819      -1.01601117      -3.21504900
N        3.26930273       0.70866135      -1.03849570
C        4.48379800       1.39798874      -0.61353982
H        0.66820738       1.13190122       0.30824768
H        0.54392027      -0.61330230       0.63520212
H        0.61978339      -0.02414524      -1.04595671
H        2.94504424       0.06677135       1.01556723
H        4.22753611      -1.19599329      -0.55812009
H        2.77057128      -2.62360924      -1.98233078
H        2.15216493       0.06529013      -3.36137046
H        1.76844789      -1.65628829      -3.99310981
H        4.22751126       2.41785849      -0.29072836
H        5.17763968       1.46928383      -1.46360513
H        5.00543592       0.88788013       0.22248263
