15
Properties=species:S:1:pos:R:3 -1493.5090065256766=T 10.187118=T 11.23715=T -9.6844=T -7.574=T -10.578=T 0.777=T -0.389=T 1.406=T 9.88339=T -0.99921=T 5.3674283316=T 12.4376431914=T 0.111873592=T pbc="F F F"
C        2.64695629      -0.80362346      -1.04959149
N        2.39920336       0.03835533       0.12736136
C        2.96934622       1.38275720       0.02606335
C        2.41051499       2.27924777       1.15502892
O        2.56679451       1.70088190       2.44515943
C        4.44971889       1.37776634       0.00945384
N        5.61482867       1.30661520      -0.00932068
H        2.22911937      -1.80152316      -0.86427750
H        3.71733550      -0.91237437      -1.30586789
H        2.12334716      -0.37763153      -1.91808287
H        2.81093944      -0.41107418       0.95015505
H        2.63944289       1.82402350      -0.93106749
H        1.34906681       2.47028712       0.92696629
H        2.94914576       3.23710658       1.16713895
H        1.85620016       1.04463577       2.55506072
