11
Properties=species:S:1:pos:R:3 -1241.10520661007=T 10.624028=T 10.45486=T -9.1607=T -7.3023=T -9.435=T -0.4505=T -2.1283=T -1.278=T 8.89514=T 1.91783=T 3.4501708206=T 4.2970199978=T 0.381387714=T pbc="F F F"
N        1.05850178      -0.28665651       0.11329547
C        2.38755101      -0.06224732       0.05602992
C        3.04117781       1.15623258       0.02563001
C        2.34344344       2.44437422       0.05351147
O        2.87706904       3.54366969       0.02683661
C        4.46547485       1.14194160      -0.03583926
N        5.63384804       1.11419979      -0.08630835
H        0.70383994      -1.23383351       0.13255014
H        0.38189480       0.46769395       0.14226009
H        2.99275289      -0.97060721       0.03155284
H        1.22417640       2.36966272       0.10408105
