17
Properties=species:S:1:pos:R:3 -1721.2257425305452=T 11.752814=T 12.68147=T -8.3432=T -6.283=T -8.946=T 0.9103=T -0.0258=T 1.356=T 8.36138=T -0.75188=T 6.0904774878=T 0.359092656=T pbc="F F F"
C        4.03165112       0.00862628      -1.33839045
O        3.01381609       0.91284828      -0.90350325
C        3.37387032       1.94915107      -0.05815507
C        2.52250571       2.98366254       0.05246970
C        4.64842151       1.81521029       0.70337568
C        4.82295127       2.46310059       2.05306031
C        4.69622960       0.96192342       1.96206333
H        3.51506349      -0.74354095      -1.94630943
H        4.53332208      -0.48965213      -0.49468183
H        4.78450294       0.51684912      -1.96510622
H        1.60144569       3.00625449      -0.52808135
H        2.73850205       3.80677886       0.72748851
H        5.55194211       1.77583446       0.08758709
H        3.97901386       3.01249621       2.46862546
H        5.80146358       2.88466510       2.28373154
H        5.58212206       0.34959071       2.13552784
H        3.75542650       0.52075166       2.29270816
