15
Properties=species:S:1:pos:R:3 -1425.6910885888337=T 8.672743=T 9.38763=T -10.037=T -7.8077=T -11.968=T 0.8805=T -0.1398=T 2.843=T 11.40584=T -2.5549=T 9.5932183724=T 12.7524064496=T 0.126794795=T pbc="F F F"
C        0.97453214      -0.00621532      -0.01046380
C        2.50919973      -0.03650457      -0.00039660
C        3.03199696      -0.70054649       1.27449484
C        3.05196908      -0.74687411      -1.24818483
O        3.02300240       1.31876968       0.05093361
H        0.59908816       0.50093013      -0.91357992
H        0.60088930       0.53504282       0.86983643
H        0.55458617      -1.02316820      -0.00109132
H        2.66799614      -0.16138079       2.16003494
H        4.13061328      -0.68466153       1.28784580
H        2.69482995      -1.74457538       1.33546805
H        2.69979098      -0.24949625      -2.16598049
H        2.71832121      -1.79458407      -1.28859533
H        4.15068786      -0.72913708      -1.24583024
H        2.71091661       1.77859115      -0.74868112
