16
Properties=species:S:1:pos:R:3 -1619.7429490454253=T 11.481283=T 13.07566=T -9.3388=T -7.0635=T -9.123=T 0.8704=T -0.0194=T 2.496=T 8.74207=T -2.04679=T 4.1273451568=T 10.1995471082=T 0.476902889=T pbc="F F F"
C        0.95776353      -0.00374404       0.00635581
C        2.41399754      -0.00389301       0.00672950
C        3.63071751      -0.00499787       0.00876550
C        5.09568851       0.00691174      -0.01212030
C        5.64231314      -0.77066010      -1.22526403
C        5.64199691       1.44760943       0.02191949
H        0.55932655       1.02202755       0.01750616
H        0.55738864      -0.52627586       0.88824456
H        0.55935436      -0.50614493      -0.88802666
H        5.44602158      -0.50704682       0.90214658
H        5.32329580      -0.29347536      -2.16330887
H        5.27680208      -1.80615835      -1.22816902
H        6.74180913      -0.78872317      -1.20254460
H        5.32339719       2.00095848      -0.87346696
H        6.74148777       1.43778672       0.04982167
H        5.27589975       1.98821560       0.90487116
