16
Properties=species:S:1:pos:R:3 -1609.157914047516=T 10.737936=T 11.82671=T -9.2433=T -7.1666=T -10.498=T 1.1975=T -0.6118=T 0.343=T 9.56513=T 0.38133=T 3.7431125428=T 8.0597471258=T 0.124163035=T pbc="F F F"
C        3.39161354      -1.74908548       0.46022463
C        2.66333791      -0.47712486       0.10167603
O        1.63351800      -0.46711052      -0.55729553
C        3.23165929       0.84336753       0.63347645
N        4.65569148       0.78985896       0.95233583
C        5.55529951       1.21133373      -0.13287785
C        5.31864233       2.09545522       1.04531823
H        4.39806702      -1.74145623       0.01627644
H        2.82406252      -2.61405245       0.10090286
H        3.54742675      -1.80513595       1.54749572
H        2.67947650       1.05842120       1.56645076
H        2.96085271       1.63777805      -0.09085970
H        5.10085716       1.51501027      -1.08181309
H        6.48665592       0.64741088      -0.21917846
H        6.07409600       2.18481567       1.82856288
H        4.70934337       2.99001398       0.87959479
