20
Properties=species:S:1:pos:R:3 -1894.5466177314195=T 11.859888=T 13.32856=T -9.5361=T -7.3118=T -10.693=T 0.7665=T -0.207=T 2.788=T 10.00264=T -2.52245=T 8.4684793734=T 13.4990501416=T 0.097794735=T pbc="F F F"
C        1.33295216      -0.59155606       0.09088274
C        2.84770357      -0.40481274       0.19940849
C        3.31698999       0.97448083      -0.27285489
C        4.83043697       1.20869776      -0.16549250
N        5.67456761       0.34865418      -1.02260483
C        5.20570953       2.66170525      -0.49743866
O        6.61308434       2.84849809      -0.45724400
H        1.02519272      -1.58909144       0.43557145
H        0.99119058      -0.47734446      -0.94930302
H        0.79584639       0.15250362       0.69871926
H        3.35256323      -1.18969818      -0.38944583
H        3.16321530      -0.55434456       1.24671951
H        2.79811037       1.75173477       0.31680244
H        3.00612748       1.13103992      -1.32284540
H        5.15445736       1.01635513       0.87260195
H        5.27004668       0.28324309      -1.96224379
H        5.72578231      -0.60224826      -0.65504021
H        4.75111310       3.34964183       0.23217340
H        4.79743751       2.91951562      -1.49899554
H        6.96156281       1.99738563      -0.80748055
