17
Properties=species:S:1:pos:R:3 -1676.603545128899=T 10.981689=T 11.88308=T -8.6439=T -6.5317=T -10.167=T 0.8643=T -0.0912=T 3.052=T 9.70848=T -2.77839=T 8.317042873=T 12.218758307=T 0.167226318=T pbc="F F F"
N        1.08857201      -0.01991178       0.48750510
C        2.50213276      -0.01724828       0.07057271
C        2.83125198      -1.37093902      -0.60176715
C        2.55103882      -1.13541208      -2.08389381
C        3.59640317      -0.42609249      -2.86935684
N        2.43046735       0.32257462      -2.35603326
C        2.69684649       1.01008213      -1.06561876
H        0.83238748       0.90017278       0.85485083
H        0.95507006      -0.68255282       1.25584756
H        3.20465942       0.19056963       0.90296376
H        2.20096097      -2.17278568      -0.19297543
H        3.88165548      -1.65105126      -0.42710161
H        1.82176781      -1.77237945      -2.58952164
H        4.56610563      -0.26967412      -2.38222595
H        3.63842719      -0.51806092      -3.95777316
H        3.71662391       1.42917735      -1.04789278
H        1.98945947       1.84726140      -0.96270957
