15
Properties=species:S:1:pos:R:3 -1567.711916272108=T 11.410814=T 11.71632=T -7.6656=T -5.6862=T -7.867=T 1.1408=T -0.4298=T 0.541=T 7.3794=T 0.13523=T 4.0421047818=T 6.8457506054=T 0.236436183=T pbc="F F F"
C        1.00659699       0.02005797       0.02606348
C        2.51253916       0.05393221       0.02946002
N        3.12174608       1.19998472       0.16439390
C        4.51521386       1.15490242       0.00993733
C        5.25058497       0.02858882      -0.06634336
C        4.58867191      -1.31673480       0.07105921
N        3.15220009      -1.14025423      -0.18428533
H        0.60319936      -1.00118880       0.04607542
H        0.62572240       0.53322397      -0.86779937
H        0.63307864       0.56773919       0.90053108
H        4.99459458       2.13476434      -0.06448871
H        6.33256942       0.06734562      -0.19356654
H        4.99418326      -2.03900995      -0.65787478
H        4.76076549      -1.75498073       1.07928759
H        2.57848378      -1.97633076      -0.23108996
