17
Properties=species:S:1:pos:R:3 -1632.2966828002939=T 11.072115=T 11.97503=T -8.901=T -6.9297=T -10.056=T 0.8028=T -0.1551=T 0.294=T 9.36698=T 0.29609=T 4.3477426704=T 5.7090965518=T 0.187808007=T pbc="F F F"
C        0.78234571       0.03399167       0.02954940
C        2.29134450      -0.20807296       0.06905947
C        3.08685269       1.09164453      -0.08711074
N        4.53051186       0.92099538       0.04150650
N        5.00151865       0.51860098       1.32257070
C        5.36924746       0.79586011      -1.02812052
O        6.55248141       0.46422806      -0.94662422
H        0.22847867      -0.90737914       0.14748742
H        0.46801915       0.48628470      -0.92372557
H        0.46436298       0.70871690       0.83905596
H        2.58751934      -0.90461728      -0.73235733
H        2.58024158      -0.67603564       1.02202575
H        2.75827554       1.82868694       0.66477063
H        2.90703930       1.54281697      -1.07619272
H        5.36256426       1.36230711       1.78744514
H        5.83957400      -0.04567945       1.11989694
H        4.85792289       1.02466114      -1.98891679
