14
Properties=species:S:1:pos:R:3 -1527.0045669775884=T 12.642164=T 13.95592=T -10.3693=T -8.195=T -9.938=T 0.5222=T -1.2687=T 0.185=T 9.50827=T 0.17009=T 3.5894070986=T 7.8235661944=T 1.170338635=T pbc="F F F"
C        0.93418683       0.01947855       0.00613960
C        2.46144039      -0.00652880       0.00470496
C        3.05922915       1.41863771       0.00003307
C        4.50770748       1.43670322      -0.00150222
C        5.72867261       1.42337553      -0.00272437
C        7.09226327       1.41290832      -0.00410698
N        8.26719194       1.40225490      -0.00529517
H        0.52623187      -1.00036757       0.00946833
H        0.54053258       0.53330458      -0.88373638
H        0.54229242       0.53839611       0.89383606
H        2.83508823      -0.54965240      -0.87646977
H        2.83683677      -0.54460488       0.88822994
H        2.69793939       1.97703099       0.88130324
H        2.69613706       1.97199375      -0.88367033
