14
Properties=species:S:1:pos:R:3 -1514.1507464003412=T 10.531723=T 10.97442=T -8.2352=T -6.2626=T -8.877=T 1.2494=T -0.3787=T 0.403=T 8.38386=T 0.27443=T 4.3816280442=T 11.8866990018=T 0.21420674=T pbc="F F F"
C        1.07772682      -0.00063362      -0.16635691
N        2.50535060      -0.02056711       0.08038484
C        3.30824991      -1.17015010       0.20567393
C        4.59565219      -0.85253523       0.43962378
C        4.70772894       0.64454209       0.48364060
C        3.27447717       1.13397047       0.23752459
O        2.85384891       2.28328660       0.18315325
H        0.77987237       1.05223422      -0.24400429
H        0.52343573      -0.47090832       0.65989660
H        0.83123304      -0.51640460      -1.10621604
H        2.84746751      -2.15084521       0.10698882
H        5.41079532      -1.55698965       0.57180946
H        5.06388030       1.03525204       1.44989176
H        5.37221118       1.06317843      -0.28856040
