18
Properties=species:S:1:pos:R:3 -1745.6298423627213=T 11.763038=T 12.65244=T -8.7364=T -6.6183=T -9.371=T 0.9402=T 0.0296=T 1.235=T 8.90057=T -0.74058=T 6.3424542356=T 0.338573178=T pbc="F F F"
C        2.10396808      -0.68874110       0.54915206
C        2.10206239      -1.16735627      -0.89829036
C        2.56970275      -2.61110540      -1.04126935
N        2.69733046      -2.97548978      -2.45574656
O        0.75146854      -1.13879729      -1.44239106
C        0.26823511       0.05126164      -1.89943971
C        0.85987445       1.25567688      -1.93750844
H        1.66512866       0.31317337       0.63547267
H        3.13296588      -0.64727110       0.93413782
H        1.52274840      -1.37528242       1.18136098
H        2.74099539      -0.53270241      -1.53586305
H        1.87628215      -3.25193548      -0.45805716
H        3.56182787      -2.69043937      -0.56934080
H        1.77220135      -2.93626500      -2.89152649
H        3.01622671      -3.94236778      -2.53997059
H       -0.74956724      -0.09290122      -2.27104883
H        1.86609865       1.45406986      -1.57418419
H        0.30405038       2.08746289      -2.36513693
