12
Properties=species:S:1:pos:R:3 -1351.9645078319732=T 9.995431=T 10.98377=T -10.1798=T -8.0852=T -11.188=T 0.3102=T -1.6026=T -0.472=T 10.26661=T 1.10121=T 3.6673942926=T 11.1073106072=T 0.217812216=T pbc="F F F"
O        2.14868389      -0.91752339       0.46842262
C        2.13279289       0.18832668      -0.03555631
C        3.27275738       1.13945562      -0.01604672
C        3.47077270       2.04431479      -1.21457676
C        2.91278065       2.63670309       0.05021152
C        3.72428013       3.49183902       0.86871028
N        4.38801751       4.19129465       1.52754654
H        1.22258732       0.57013700      -0.57469526
H        4.15456464       0.81591552       0.53682658
H        2.77876629       1.93946799      -2.05099364
H        4.49832166       2.28582399      -1.48036183
H        1.84636493       2.87494506       0.06205300
