16
Properties=species:S:1:pos:R:3 -1615.6699995862646=T 11.248007=T 11.81868=T -8.6521=T -6.5335=T -9.142=T 0.8844=T -0.1899=T 1.37=T 8.58396=T -0.79541=T 6.2417776036=T 0.339305512=T pbc="F F F"
C        1.03593487       0.05090211       0.11280786
C        2.35529815       0.00028234      -0.11423967
C        3.17875205      -1.26503840      -0.09030218
N        4.13646814      -1.27903147      -1.20679215
C        4.99020819      -0.09187080      -1.12733181
C        4.10166932       1.13110904      -1.27152132
O        3.06792952       1.17604155      -0.26074890
H        0.51038834       1.00469556       0.13654717
H        0.47696324      -0.86247093       0.30780728
H        2.51155330      -2.13351408      -0.16769045
H        3.69260052      -1.30917858       0.89761401
H        4.70617460      -2.12551917      -1.15239359
H        5.55295992      -0.02288891      -0.16986732
H        5.71742797      -0.10556166      -1.95352802
H        4.67250864       2.06014232      -1.14223936
H        3.62334323       1.12856105      -2.26671155
