18
Properties=species:S:1:pos:R:3 -1754.3966725881658=T 11.236718=T 12.21629=T -8.9688=T -6.8637=T -10.336=T 1.0625=T -0.834=T 0.123=T 9.90021=T 0.54025=T 3.7301312086=T 8.228516869=T 0.108880515=T pbc="F F F"
C        2.93751958      -0.51211763       1.42431418
N        2.66029167       0.20056899       0.17601812
C        3.05143278       1.61989102       0.13410079
C        2.52472782       2.19361210      -1.19749736
C        2.59193369       2.48386264       1.31562872
C        4.58222106       1.63215460      -0.00484628
O        5.33966266       2.39664659       0.55953434
H        2.65912423      -1.56723825       1.29650918
H        2.41007442      -0.12203353       2.31563270
H        4.01735812      -0.48475448       1.63545323
H        1.67024663       0.11749244      -0.06447732
H        2.89704958       1.60863251      -2.05027252
H        2.82380387       3.24255101      -1.32031853
H        1.42442815       2.14839727      -1.20465765
H        2.96920580       2.09645406       2.27107076
H        1.49335095       2.51651930       1.35900195
H        2.97119882       3.50895578       1.21205029
H        4.95154018       0.85144558      -0.72092459
