16
Properties=species:S:1:pos:R:3 -1682.331022742594=T 12.000269=T 13.24316=T -9.4658=T -7.4104=T -9.173=T 0.7893=T -0.2963=T 0.853=T 8.58872=T -0.26645=T 5.3500702916=T 11.8456968316=T 0.42299912=T pbc="F F F"
C        0.84301395       0.00055256       0.08323581
C        2.33712561      -0.18541344       0.02945589
C        2.79804029      -1.60806902       0.19498692
C        3.14403457       0.87485860      -0.15507739
C        4.65433233       0.86610879      -0.21509854
C        5.16457695       1.39628448      -1.48136129
N        5.56222692       1.82299778      -2.49156118
H        0.55516063       1.05200935      -0.04270326
H        0.43788841      -0.35766494       1.04348779
H        0.34942523      -0.59010772      -0.70551155
H        2.34271339      -2.24705124      -0.57853673
H        2.46391340      -2.00894794       1.16558270
H        3.88525831      -1.73503594       0.13457691
H        2.68893598       1.86214121      -0.27551582
H        5.06695185      -0.14313816      -0.07770457
H        5.07294217       1.48908562       0.59427430
