10
Properties=species:S:1:pos:R:3 -1104.4701757064524=T 9.536483=T 9.86662=T -9.0763=T -7.0624=T -9.887=T 0.2462=T -1.5702=T -0.515=T 9.38448=T 1.00381=T 4.086702546=T 11.2233491046=T 0.405873474=T pbc="F F F"
C        1.09233184       0.04762382       0.02040375
C        2.30428508      -0.00004321      -0.02525298
C        3.71282149      -0.02426950      -0.07574345
N        4.43593336      -1.10035134      -0.11147911
O        5.78269055      -0.65111313      -0.07404381
C        5.74829092       0.76122697      -0.34523172
O        4.40516349       1.16773145      -0.03934942
H        0.02251403       0.07904492       0.06274380
H        5.95444213       0.95403144      -1.41581173
H        6.45558711       1.27974857       0.31562466
