19
Properties=species:S:1:pos:R:3 -1871.155537907665=T 11.615819=T 13.25237=T -9.7294=T -7.657=T -11.811=T 0.8822=T -0.023=T 2.642=T 10.87046=T -2.32444=T 9.167090889=T 10.9929831166=T 0.204033126=T pbc="F F F"
C        0.90638566      -0.17209619      -0.31234122
C        2.42021905      -0.20273586      -0.09154496
C        3.01488322       1.19756568       0.11171834
C        4.52550881       1.21957155       0.26570904
C        5.10324106       0.56393170       1.50004393
C        5.36596709       1.36562170      -0.93960965
O        5.14004228       2.49471498      -0.07314111
H        0.50097737      -1.18465523      -0.45015914
H        0.64591408       0.41723850      -1.20485297
H        0.38790462       0.28144708       0.54627080
H        2.91081004      -0.68312584      -0.95542825
H        2.64740530      -0.83573054       0.78204719
H        2.56297166       1.66475957       1.00507355
H        2.75219400       1.84167456      -0.74300554
H        6.19201993       0.69771574       1.53182657
H        4.88426039      -0.51377381       1.51909648
H        4.67354684       1.01290601       2.40842498
H        4.89044157       1.43231468      -1.92554082
H        6.38938702       0.97248571      -0.93700724
