17
Properties=species:S:1:pos:R:3 -1772.4107266018018=T 13.422176=T 15.10994=T -9.3199=T -7.1018=T -8.954=T 1.235=T -0.0094=T 1.231=T 8.52606=T -0.65088=T 4.1107930258=T 10.1696912794=T 0.508810401=T pbc="F F F"
C        0.94844538      -0.01233718      -0.00130512
C        2.40412697      -0.00784425      -0.00957393
C        3.62061667      -0.00696235       0.00200307
C        5.08700424       0.01553281      -0.00859031
C        5.65096119      -0.82499381      -1.17791788
C        5.59240946       1.44269476      -0.07518795
C        6.38511691       2.01090431       0.83806785
H        0.54838039       1.01278373       0.01576932
H        0.55853014      -0.53683720       0.88410301
H        0.54360102      -0.51446470      -0.89289380
H        5.44676294      -0.42628930       0.93859289
H        5.33536638      -0.40299104      -2.14260342
H        5.28314632      -1.85828678      -1.12039406
H        6.74892135      -0.83283860      -1.14154222
H        5.26819982       2.01204730      -0.95345457
H        6.71267344       1.46575380       1.72732569
H        6.73022738       3.04015850       0.73096143
