17
Properties=species:S:1:pos:R:3 -1665.4490772720299=T 11.566312=T 12.67905=T -8.7715=T -6.6857=T -9.157=T 0.9701=T 0.0831=T 1.225=T 8.68425=T -0.66884=T 6.149457628=T 0.320768914=T pbc="F F F"
C        1.16731712       4.21331589      -0.49650492
O        2.20136091       3.34766528      -0.93881405
C        3.15292896       3.08753513       0.10430168
C        4.16047543       2.09435675      -0.36928675
C        5.45415108       2.43059129      -0.51581933
O        6.49191524       1.64742508      -0.91648990
C        6.17039902       0.29362230      -1.25113918
H        0.47368512       4.34366317      -1.33710540
H        1.56140736       5.20465054      -0.19850380
H        0.61538245       3.78675544       0.36414669
H        2.60988602       2.70125634       0.99262098
H        3.64983583       4.03110206       0.41007213
H        3.79871353       1.09108886      -0.59895792
H        5.81329270       3.44025927      -0.29837156
H        7.11414647      -0.17636439      -1.54743814
H        5.45399055       0.25514931      -2.08747705
H        5.74571222      -0.23541231      -0.38219350
