17
Properties=species:S:1:pos:R:3 -1699.2343789826134=T 12.672193=T 13.03753=T -8.6497=T -6.7386=T -9.021=T 0.8492=T -0.67=T 0.324=T 8.40881=T 0.18019=T 4.6249505692=T 5.4421050994=T 0.413973942=T pbc="F F F"
C        1.00362273       0.12204195      -0.22644951
C        2.48120769      -0.09497351      -0.03087770
C        2.88513811      -1.53321567       0.15239954
C        3.32012841       0.96494437       0.01180040
C        4.78594315       0.99569501       0.24467017
N        5.54960815      -0.00182557      -0.35581787
N        5.38450549       1.87326449       0.98394302
H        0.75333277       1.18240910      -0.35999153
H        0.43505434      -0.26440838       0.63547603
H        0.64347266      -0.43305812      -1.10838020
H        2.28012929      -1.98725326       0.95406998
H        3.94505971      -1.64945409       0.40035786
H        2.66821573      -2.11599790      -0.75874010
H        2.87603221       1.96258112      -0.06606888
H        5.22959627      -0.31824168      -1.26732465
H        6.54918703       0.18997133      -0.30772632
H        4.69005626       2.48994082       1.42173975
