16
Properties=species:S:1:pos:R:3 -1595.5852393179478=T 10.23635=T 11.37119=T -9.4545=T -7.3968=T -10.694=T 0.8965=T -0.0321=T 0.487=T 10.13401=T 0.09698=T 4.9119161662=T 12.5574136674=T 0.205397483=T pbc="F F F"
C        4.24881110       4.05540603      -2.27203582
C        3.12341072       3.71324627      -1.31160142
O        3.52974128       3.88560249       0.07239464
C        4.13084913       2.78638435       0.64274884
O        4.29626942       1.70852039       0.08607661
N        4.50197317       3.09008446       1.92162222
C        5.15396472       2.12869909       2.78925832
H        3.88625268       3.98195240      -3.30784344
H        5.08648786       3.35576789      -2.15287496
H        4.61089669       5.07949711      -2.10634993
H        2.78273818       2.67836569      -1.45153029
H        2.27169338       4.39709606      -1.42893953
H        4.29820890       4.02673874       2.25350505
H        5.23237638       1.18635466       2.23537472
H        4.56878530       1.95528155       3.70494863
H        6.16605111       2.45923284       3.06972635
