15
Properties=species:S:1:pos:R:3 -1602.7357988531191=T 10.887974=T 11.70107=T -8.3603=T -6.2803=T -9.012=T 0.9505=T 0.0254=T 1.378=T 8.46608=T -0.78835=T 6.163654025=T 0.394686318=T pbc="F F F"
C        1.27663639       0.21354646       0.68115006
C        2.25357892      -0.04494788      -0.19772348
C        2.99411724      -1.35235845      -0.42997081
C        4.21256363      -0.93947226      -1.23570652
C        5.07349738       0.17482365      -0.65950015
C        3.96171590       0.49177739      -1.62269591
O        2.72952078       0.93207109      -1.05692575
H        0.83245400       1.20450956       0.75453381
H        0.89947771      -0.58087708       1.32116340
H        2.36938097      -2.04113611      -1.02146695
H        3.23484987      -1.84983067       0.52029313
H        4.65380459      -1.64598033      -1.93814295
H        4.92555340       0.45634370       0.38515480
H        6.09707937       0.25907130      -1.02518909
H        4.13856986       0.91786963      -2.60914359
