16
Properties=species:S:1:pos:R:3 -1588.556847887571=T 11.362729=T 12.49493=T -9.4404=T -7.1201=T -10.008=T 0.9616=T -0.145=T 2.055=T 9.60194=T -1.67097=T 4.3667993186=T 10.5862842394=T 0.424482384=T pbc="F F F"
N        1.06631828      -0.22536893      -0.57310092
C        2.47146225      -0.26040092      -0.14121361
C        3.06116975       1.15022844      -0.15826472
C        4.53112776       1.21723715       0.29452509
O        5.09791423       2.52086231       0.06648738
C        4.69620743       0.80083857       1.69082565
C        4.80670330       0.49799654       2.86168811
H        0.65262253      -1.15610277      -0.48587186
H        1.01286830       0.01713439      -1.56620529
H        3.11549103      -0.92850360      -0.75130889
H        2.49698657      -0.65000219       0.88848340
H        2.44769121       1.80483581       0.48115627
H        3.02917664       1.56181631      -1.18035627
H        5.13166974       0.54506439      -0.34300534
H        4.72737781       3.11704895       0.74290893
H        4.92069317       0.22492556       3.89109207
