20
Properties=species:S:1:pos:R:3 -1943.4281760036936=T 13.278033=T 14.37823=T -8.8324=T -6.6816=T -8.69=T 0.925=T -0.0716=T 1.505=T 8.10715=T -0.80729=T 6.0455077656=T 0.382439416=T pbc="F F F"
C        2.31555637      -0.37100877       1.39386533
C        2.62194990       0.22946623       0.01205409
C        2.82244505       1.73164853       0.02246113
C        1.57641345       2.54897999       0.25224448
C        4.04962955       2.24866692      -0.18529508
C        4.46422954       3.69122434      -0.21307388
N        5.61022534       3.90223100       0.69497007
H        2.19385737      -1.46181070       1.32547948
H        1.38940506       0.03611948       1.82473762
H        3.13437687      -0.16413246       2.09817418
H        1.79353686      -0.01892023      -0.67611788
H        3.52398504      -0.25041729      -0.39816305
H        0.88928668       2.44853390      -0.60470386
H        1.78145482       3.61741095       0.38983530
H        1.02464991       2.19361576       1.13613290
H        4.88033028       1.55183020      -0.34777961
H        3.60197656       4.35503503      -0.01364190
H        4.81642876       3.93774238      -1.23094526
H        5.30337979       3.76921503       1.66251577
H        5.93690280       4.86868971       0.62318016
