11
Properties=species:S:1:pos:R:3 -1213.5228533615318=T 9.410696=T 10.16552=T -10.4543=T -8.3407=T -11.376=T -0.9169=T -2.8247=T -1.453=T 10.409=T 1.91228=T 3.355371125=T 11.87041964=T 0.245099393=T pbc="F F F"
O        1.03046295       0.42571255      -0.97938168
C        1.78083740       0.50896483      -0.02323833
C        1.64541937      -0.42522851       1.11568233
N        1.53701016      -1.15652177       2.01991032
C        2.90741920       1.48054144       0.10738556
C        3.68604178       1.83437804      -1.13418189
N        2.72102196       2.77872523      -0.58704423
H        3.44920946       1.45509533       1.05570450
H        3.36900671       1.36136242      -2.06614242
H        4.75798996       2.00601656      -1.01145635
H        3.20058104       3.50289388      -0.04155783
