20
Properties=species:S:1:pos:R:3 -1883.95129753603=T 12.13717=T 13.6856=T -9.1589=T -6.8384=T -10.565=T 1.0061=T 0.0701=T 3.214=T 9.93609=T -2.97939=T 8.8093044888=T 12.2134021118=T 0.182891768=T pbc="F F F"
C        3.85188933       3.44684828      -3.24509963
C        3.88522784       2.26436186      -2.29469856
O        4.92563237       2.46836433      -1.34177802
C        5.02404725       1.38935324      -0.41313027
C        6.16180080       1.65528254       0.56010978
C        5.93375267       2.86414909       1.46752433
N        7.03946705       2.98759484       2.43463633
H        3.05857717       3.31021678      -3.99320507
H        4.81131539       3.54893890      -3.77089579
H        3.65628837       4.37951794      -2.69801610
H        4.06550170       1.32100980      -2.85052255
H        2.91236756       2.15465938      -1.77282720
H        5.20425060       0.44059815      -0.95830450
H        4.06437852       1.27583883       0.13455095
H        7.09242961       1.79340476      -0.01720136
H        6.30547438       0.76216292       1.18908513
H        5.00495044       2.70838471       2.04252957
H        5.77738481       3.76215485       0.84059908
H        7.90342999       3.21592493       1.93383406
H        6.86383414       3.77899388       3.05822983
