15
Properties=species:S:1:pos:R:3 -1606.232631603965=T 10.711691=T 11.41826=T -8.8501=T -6.679=T -8.886=T 1.0235=T -0.1294=T 1.27=T 8.41379=T -0.65109=T 5.8583756958=T 0.2436968=T pbc="F F F"
O        1.77420522       0.52595684       1.20678855
C        2.73211278       0.06385166       0.28096865
C        3.37407762       1.04497613      -0.66473263
C        4.19151930       0.43372288       0.47738398
C        4.96124204      -0.79326270       0.13000530
C        4.14715015      -1.80049246      -0.23395723
C        2.69002971      -1.41306238      -0.12596027
H        0.98294030       0.79185667       0.70446277
H        3.08170708       2.08800248      -0.53272020
H        3.60861542       0.73759399      -1.68628914
H        4.49833054       1.09241316       1.29080624
H        6.05088925      -0.84039457       0.15161544
H        4.47456297      -2.78628839      -0.56621790
H        2.13659339      -1.57605338      -1.06595721
H        2.17416423      -1.99611995       0.65739366
