15
Properties=species:S:1:pos:R:3 -1605.246373485148=T 10.721917=T 11.48561=T -8.874=T -6.6775=T -8.859=T 0.9425=T 0.0147=T 1.276=T 8.41054=T -0.6587=T 5.8569870526=T 0.249428759=T pbc="F F F"
O        1.33363062      -0.05135348       1.04247885
C        2.50239209       0.00546568       0.25474400
C        2.44932919       0.76435124      -1.04896732
C        3.76499935       1.22067937      -1.67807612
C        4.51636773      -0.07384677      -1.91134855
C        3.77951529      -1.15332640      -1.59491737
C        2.45151790      -0.77269767      -1.03990559
H        1.20450201       0.82616585       1.44552951
H        3.44853666      -0.01927108       0.81146520
H        1.52146984       1.29660257      -1.26148682
H        4.32458176       1.90861933      -1.02020067
H        3.59931050       1.76396907      -2.62512136
H        5.54122871      -0.10176853      -2.28452413
H        4.10849267      -2.18889919      -1.69193123
H        1.55004569      -1.35427998      -1.23784841
