16
Properties=species:S:1:pos:R:3 -1502.5259599637213=T 10.206864=T 11.2272=T -8.7665=T -6.5549=T -10.161=T 0.9727=T 0.0406=T 3.224=T 9.45376=T -2.90849=T 8.1747193436=T 11.6187404586=T 0.20513421=T pbc="F F F"
C        1.19350677       0.04365489      -0.40672845
N        2.65362975       0.06767147      -0.44678933
C        3.22328705       1.10624986       0.41090695
C        4.73149337       1.10016162       0.33159482
C        5.46296322       1.93848608      -0.66080372
N        5.40651356       2.34175796       0.76235840
H        0.81660418      -0.70980191      -1.11227799
H        0.71417212       1.01727046      -0.64509763
H        0.86174953      -0.24991306       0.60148731
H        2.96329065       0.22958588      -1.40879829
H        2.91372897       0.89428346       1.44973822
H        2.86032484       2.13160250       0.17772858
H        5.19675098       0.14441660       0.59527503
H        4.89945610       2.59137721      -1.33354308
H        6.40236827       1.55568493      -1.06731736
H        6.29317063       2.10769205       1.21918654
