22
Properties=species:S:1:pos:R:3 -2078.0836253840957=T 12.953565=T 14.35375=T -8.4948=T -6.4351=T -9.989=T 0.9023=T -0.0232=T 3.124=T 9.23107=T -2.81504=T 8.0163272286=T 10.5799609534=T 0.13260187=T pbc="F F F"
C        0.98024119      -0.52813417       0.05277855
C        2.23314671      -0.30035371       0.89970714
C        2.66341910       1.17008974       1.02310306
C        1.58798967       2.07491141       1.66150480
C        1.17818058       1.68634666       3.08434307
N        3.91512794       1.22738233       1.79469767
C        4.65693046       2.47821816       1.65194649
H        0.78602420      -1.60232498      -0.07657108
H        1.08895865      -0.08689025      -0.95021986
H        0.08547793      -0.08690926       0.51539554
H        3.07333175      -0.85948154       0.45030617
H        2.09347261      -0.72038146       1.90901792
H        2.82528153       1.55551795      -0.01267690
H        0.70758326       2.08590949       0.99919490
H        1.96342775       3.11094040       1.65985687
H        0.65747329       0.71736689       3.11272800
H        0.49737371       2.43622846       3.51210294
H        2.06116563       1.60931423       3.73424709
H        4.51246355       0.45415693       1.49394046
H        4.14647753       3.29269267       2.18741586
H        4.79401541       2.80382534       0.59763529
H        5.64953758       2.36451472       2.10916601
