14
Properties=species:S:1:pos:R:3 -1336.0084802794731=T 9.517036=T 9.99152=T -8.7884=T -6.6176=T -9.616=T 1.5484=T 0.0193=T 1.341=T 9.1188=T -0.79437=T 6.7336424642=T 0.416428822=T pbc="F F F"
C        1.09545333      -0.17241395       0.00178846
N        2.54757466      -0.07454648      -0.12539816
C        3.03923564       1.29323715       0.06442688
C        4.53246294       1.35190564      -0.07071880
C        5.18557982       2.15362704      -0.91917039
H        0.77491078      -1.19857437      -0.22470074
H        0.53171128       0.52302653      -0.65619241
H        0.80431892       0.04531732       1.04133039
H        2.83161293      -0.39462643      -1.05494858
H        2.75638756       1.59883027       1.08937797
H        2.56975224       2.03081686      -0.62456135
H        5.09067647       0.66859536       0.57830276
H        4.64796600       2.83482849      -1.58442734
H        6.27523746       2.16390656      -0.97289870
