16
Properties=species:S:1:pos:R:3 -1597.9257125078827=T 10.122257=T 11.06233=T -9.5327=T -7.4439=T -10.969=T 0.4711=T -0.5741=T 0.363=T 10.02838=T 0.26387=T 4.3182711982=T 7.6716585472=T 0.138372466=T pbc="F F F"
C        1.80401253      -0.68064683       0.40491459
C        1.93552599       0.15788060      -0.86735479
N        0.81829048      -0.03844376      -1.82768715
C        2.05430712       1.65887753      -0.55149813
C        2.30703819       2.58700845      -1.74896484
O        1.70320833       2.23288986      -2.90304525
O        2.98655946       3.59123099      -1.65561595
H        2.67200029      -0.53867811       1.06497953
H        1.73274671      -1.75196376       0.16636813
H        0.90254809      -0.39445939       0.96971562
H        2.84899065      -0.14974473      -1.40444107
H       -0.08034779       0.04368153      -1.34061738
H        0.84989901      -0.97728609      -2.23201300
H        2.86644795       1.83550143       0.16499803
H        1.12476192       2.00250435      -0.06190615
H        1.22079107       1.35558794      -2.73404219
