13
Properties=species:S:1:pos:R:3 -1300.1347109023613=T 8.809599=T 9.11305=T -9.1978=T -7.1173=T -10.422=T 1.1354=T -0.2551=T 0.472=T 9.96048=T 0.1194=T 5.1197910938=T 6.463204201=T 0.222893914=T pbc="F F F"
C        0.40861283       1.43573062       0.29467027
C        1.33157912       0.32916750      -0.19104157
O        0.99195904      -0.94960889       0.39297553
N       -0.36145140      -1.32546385       0.32828996
C       -1.23368173      -0.41534953       0.05905776
C       -1.01607520       1.06156378      -0.11723577
H        0.71254334       2.40362937      -0.12913869
H        0.48445332       1.51256485       1.38988107
H        2.37820687       0.48609789       0.10153022
H        1.27813384       0.23418111      -1.29169764
H       -2.25396489      -0.81074221       0.02004356
H       -1.21417472       1.34160258      -1.16650213
H       -1.76623040       1.59912679       0.48453743
