15
Properties=species:S:1:pos:R:3 -1502.143414391063=T 11.195561=T 11.89135=T -9.2561=T -7.2052=T -9.78=T 1.0126=T -0.2774=T 0.884=T 9.26362=T -0.65251=T 5.2115531324=T 6.7747934176=T 0.475818637=T pbc="F F F"
N        1.10180072       1.66201119      -0.86408207
C        2.25497129       0.96757081      -0.50372997
N        2.50009879      -0.28968893      -0.56780857
O        3.19840082       1.86077435      -0.09077995
C        4.49932124       1.29084976       0.21357783
C        5.44730910       2.41981048       0.45399745
C        6.20273675       2.53527335       1.55086984
H        1.03559098       2.59466302      -0.46140628
H        0.24222142       1.12808514      -0.78189613
H        1.69193597      -0.80829316      -0.92328710
H        4.81114892       0.67064225      -0.64265871
H        4.41416387       0.62915173       1.08880338
H        5.52738051       3.15890511      -0.34981358
H        6.13459837       1.81106725       2.36657205
H        6.92043125       3.34840765       1.66670183
