21
Properties=species:S:1:pos:R:3 -2010.2155205013903=T 12.452149=T 14.13891=T -9.4601=T -7.3241=T -11.453=T 0.9549=T 0.0676=T 3.037=T 10.73208=T -2.74871=T 9.2208760158=T 11.5500026202=T 0.124952157=T pbc="F F F"
C        0.94787666       1.83269697       0.97109648
C        2.47367054       1.94224172       0.97058435
C        3.11850549       1.24423965      -0.22953141
C        4.64296906       1.35151165      -0.27460568
C        5.24459132       0.50926586      -1.40111050
O        4.95900897       2.74802083      -0.42565009
C        6.29565218       3.07533959      -0.07922233
H        0.50870433       2.33839734       1.84312359
H        0.62030631       0.78145540       0.99515139
H        0.51705835       2.29214432       0.06806620
H        2.87577628       1.50526929       1.90151670
H        2.77458425       3.00116815       0.96924482
H        2.71845036       1.66693148      -1.16817444
H        2.84868071       0.17424830      -0.22670039
H        5.05597118       1.00693234       0.69813363
H        4.83972043       0.83005518      -2.37239546
H        5.00175818      -0.55351665      -1.25639942
H        6.33936570       0.59571221      -1.43717278
H        6.37841493       4.16913884      -0.12949467
H        7.03692555       2.63697455      -0.77236647
H        6.53931924       2.74554297       0.94918648
