7
Properties=species:S:1:pos:R:3 -716.9124468159916=T 5.535045=T 5.69181=T -10.247=T -7.6952=T -9.925=T 0.9441=T 0.0425=T 2.38=T 9.58727=T -2.0124=T 4.382719121=T 14.5559068056=T 1.445067417=T pbc="F F F"
C        0.98318823       0.00302913       0.01438752
C        2.43760578       0.00077500       0.00182832
C        3.65128941      -0.00043559      -0.00398891
H        0.59037348       1.03032089       0.02906828
H        0.59576925      -0.51948910       0.90133246
H        0.57943309      -0.49978425      -0.87673930
H        4.72201076      -0.00130608      -0.00807838
