11
Properties=species:S:1:pos:R:3 -1205.9088159293553=T 9.012455=T 9.55625=T -10.079=T -7.9998=T -10.882=T 0.8569=T -1.0302=T 0.002=T 10.45335=T 0.59333=T 5.3929694476=T 6.3273527408=T 0.194646514=T pbc="F F F"
N        0.96116550      -0.04284188       0.19193150
C        2.12266099      -0.00592752       0.09502106
C        3.58564582       0.00733656      -0.01196666
C        4.14968502      -1.23057851      -0.74057841
C        4.58166870      -0.59176645      -2.03336804
N        4.50836950       0.68784363      -2.05735042
O        4.00494622       1.16076240      -0.83330154
H        4.01486421       0.15624650       0.98865933
H        3.39793146      -2.01733712      -0.88365365
H        5.00739494      -1.67007274      -0.20954602
H        4.96735763      -1.11620489      -2.90644715
