13
Properties=species:S:1:pos:R:3 -1363.8813131225468=T 9.39344=T 9.76685=T -8.5862=T -6.4691=T -8.804=T 1.5463=T -0.0519=T 1.311=T 8.41645=T -0.7058=T 5.8274411888=T 0.242043598=T pbc="F F F"
C        0.31060117       1.41803180       0.36817591
C       -0.75278306       0.79710457      -0.48105537
C       -1.37297854      -0.42815339       0.09350385
C       -0.44486058      -1.38382257       0.25328772
C        0.89272589      -0.91054152      -0.26590152
N        0.69448750       0.49491257      -0.71325681
H        0.61683828       2.45316591       0.19760270
H        0.36790417       1.06867659       1.40434957
H       -1.27384575       1.38484775      -1.24182246
H       -2.42777640      -0.50318499       0.35715442
H       -0.60506077      -2.36201624       0.70782800
H        1.69161226      -0.95589474       0.49361042
H        1.23451584      -1.51342574      -1.12563645
