19
Properties=species:S:1:pos:R:3 -1912.0850784123406=T 12.980467=T 14.55647=T -9.8787=T -7.6019=T -9.713=T 0.9439=T -0.0095=T 2.375=T 9.2609=T -1.93572=T 4.329219162=T 10.6525423578=T 0.402792189=T pbc="F F F"
C        0.99322101      -0.13364874      -0.00392346
C        2.52279910      -0.11411278       0.01028640
C        3.09690731       1.30358494      -0.01464939
C        4.64209118       1.36868224      -0.00154695
C        5.14668626       2.81475081      -0.17584186
C        5.19724386       0.76885664       1.21293265
C        5.65266187       0.29018022       2.23244624
H        0.60554616      -1.16231631       0.01126340
H        0.59353418       0.36005462      -0.90337168
H        0.58124016       0.39052334       0.87213455
H        2.90827979      -0.67647927      -0.85809935
H        2.89506913      -0.63761804       0.90568501
H        2.71439965       1.87638809       0.84791174
H        2.74785895       1.82777026      -0.92125550
H        5.00889584       0.77310402      -0.85900600
H        4.79599007       3.44771811       0.65175307
H        4.76976371       3.23575523      -1.11897644
H        6.24385578       2.85087162      -0.19109827
H        6.05341599      -0.13272501       3.13079584
