15
Properties=species:S:1:pos:R:3 -1475.9798278189126=T 10.25253=T 10.80259=T -8.7036=T -6.7355=T -10.233=T 0.9361=T -0.2634=T 0.788=T 9.54659=T -0.16645=T 4.8191250438=T 8.5570301746=T 0.202958206=T pbc="F F F"
C        0.96643294      -0.00643066      -0.01981237
C        2.48792166       0.02034226       0.00427893
C        3.12323888       1.06533596       0.91996803
O        4.46992369       0.58798466       1.13051023
N        4.38451185      -0.85308326       1.08609155
C        3.13329491      -1.24004127       0.58906798
N        2.72593478      -2.45080194       0.68067207
H        0.59531432      -0.83108903      -0.64548925
H        0.56454475       0.92530704      -0.44118400
H        0.55435768      -0.13380825       0.99184739
H        2.88494314       0.15501486      -1.01746651
H        2.57603870       1.12147196       1.88284704
H        3.21279081       2.06969522       0.48562217
H        4.61389681      -1.23170446       2.00932492
H        1.80663508      -2.55214308       0.23567181
