10
Properties=species:S:1:pos:R:3 -1084.4498256218592=T 8.595792=T 8.85751=T -10.0688=T -7.9194=T -9.742=T 0.307=T -1.4965=T -0.158=T 9.28451=T 0.64443=T 5.0234539718=T 6.4923905054=T 0.311287559=T pbc="F F F"
C        0.91249457      -0.01014442       0.04478783
C        2.39660525       0.04287144       0.16770795
C        3.15351644       1.10252082      -0.17909015
C        4.57041536       1.12097311      -0.04941054
N        5.73611199       1.16634230       0.04547625
H        0.60824600      -0.84598276      -0.60492598
H        0.49752249       0.92010817      -0.36436469
H        0.44950154      -0.19966977       1.02604498
H        2.89698931      -0.84440334       0.56751437
H        2.69713705       2.01091445      -0.58284003
