12
Properties=species:S:1:pos:R:3 -1216.671409367894=T 11.831191=T 11.73253=T -8.1872=T -6.1948=T -8.524=T 0.7351=T -0.8793=T 0.09=T 8.13808=T 0.43869=T 3.7391201936=T 10.7493754238=T 0.521081945=T pbc="F F F"
C        0.94185249      -0.05853081      -0.02336425
C        2.39229084       0.01703094      -0.00887294
C        3.60907838       0.11114318      -0.00794592
C        5.02262633       0.11416233       0.01667567
N        5.70963509       1.20359980      -0.15359527
N        7.06571245       1.08533788      -0.18791863
H        0.49548016       0.94198662       0.07744495
H        0.56593865      -0.67955988       0.80395768
H        0.57368110      -0.49653357      -0.96410840
H        5.52621577      -0.85607641       0.18453560
H        7.51788176       1.96002200       0.06624717
H        7.47052698       0.26739790       0.28492433
