19
Properties=species:S:1:pos:R:3 -1815.2037024782771=T 11.855928=T 12.85437=T -8.7965=T -6.6227=T -10.096=T 0.9062=T -0.0798=T 2.991=T 9.63864=T -2.69135=T 8.1655691768=T 11.0224545888=T 0.061667603=T pbc="F F F"
N        1.96234978      -0.54827355      -1.29399848
C        2.28055142       0.02905304       0.02355797
C        3.11931649       1.29954294      -0.12023997
N        4.31417804       0.97550739      -0.91550455
C        2.35548012       2.60887162      -0.53664520
C        3.07961612       3.36839488       0.60810077
C        3.50483291       2.00267597       1.21451062
H        1.17679003      -1.19588496      -1.21379111
H        2.75711811      -1.10771444      -1.61431496
H        2.83101607      -0.66550744       0.68964627
H        1.33460334       0.28731160       0.52465243
H        4.96056463       1.76930075      -0.91046412
H        4.02359785       0.86060699      -1.89239749
H        1.27148959       2.52752703      -0.36848550
H        2.52306362       2.96121810      -1.56388995
H        3.93777654       3.95666791       0.25206351
H        2.46122752       4.01945872       1.24067517
H        4.55130688       1.88212493       1.52995397
H        2.85330092       1.68851852       2.04395064
