11
Properties=species:S:1:pos:R:3 -1170.2231116030791=T 13.424457=T 13.61846=T -7.8152=T -6.0288=T -8.296=T 0.9323=T -0.5033=T -0.138=T 7.75671=T 0.78592=T 3.5376677408=T 10.80104039=T 0.294250259=T pbc="F F F"
N        0.83747479       0.03330266       0.22311242
C        2.22103460      -0.01346487       0.07816026
C        3.11226954       1.03787811       0.01100456
Cl       2.56528917       2.69972278      -0.03745160
C        4.48387684       0.65357620      -0.02998213
C        4.63887581      -0.70524486       0.00339809
S        3.10339516      -1.52667877       0.11727513
H        0.47875033       0.97765714       0.07638846
H        0.32886142      -0.64018808      -0.34766435
H        5.30387446       1.36537453      -0.09678488
H        5.55062788      -1.29144483      -0.04287595
