13
Properties=species:S:1:pos:R:3 -1255.0925800557427=T 10.583711=T 11.50009=T -10.1932=T -8.199=T -10.435=T 0.2235=T -1.5048=T -0.271=T 9.82151=T 0.7749=T 5.176601479=T 6.7346219536=T 0.270967926=T pbc="F F F"
O        2.64315745      -0.93819027       1.02434866
C        2.33597996      -0.21650295      -0.13404855
S        2.99251536       1.50151984      -0.04710715
O        2.51395088       2.23176755      -1.23158379
O        2.68943189       1.95222044       1.32876250
C        4.76456331       1.29309777      -0.15420446
C        5.43500398       1.82172474      -1.17713118
H        2.31891305      -0.41121671       1.78242111
H        1.25580411      -0.05790117      -0.30701496
H        2.79137432      -0.71116497      -1.00104467
H        5.20565543       0.76061532       0.68925892
H        4.90574445       2.35454694      -1.96938467
H        6.52166582       1.74632347      -1.23583177
