15
Properties=species:S:1:pos:R:3 -1659.4526549440734=T 12.241443=T 12.47702=T -8.3909=T -6.3915=T -8.256=T 0.7333=T -0.7982=T 0.585=T 7.74347=T -0.02294=T 4.5882507132=T 7.2405220294=T 0.53174774=T pbc="F F F"
C        1.48536837      -0.45442819      -1.09316846
C        2.06877765       0.09407952      -0.02200368
C        3.17855787       1.11834996      -0.04050315
C        2.77587201       2.45509044       0.54939405
C        3.11784972       3.44057460      -0.31414405
C        3.73972002       2.84886510      -1.50243118
C        3.76593434       1.50016175      -1.37299032
H        0.67776101      -1.17882112      -0.97968705
H        1.78485662      -0.19343242      -2.10963822
H        1.72688550      -0.19513065       0.97799603
H        4.00697788       0.72325917       0.58882288
H        2.28942628       2.56532751       1.51698525
H        2.96404438       4.50897300      -0.16250391
H        4.12415240       3.41984305      -2.34775305
H        4.17491595       0.78289828      -2.08237514
