11
Properties=species:S:1:pos:R:3 -1212.4558975759533=T 9.121596=T 9.69525=T -10.7329=T -8.6484=T -11.373=T -0.662=T -2.6175=T -1.267=T 10.53096=T 1.66661=T 3.6319466952=T 7.744661504=T 0.203458309=T pbc="F F F"
O        1.93194388      -0.70377248      -0.72209449
C        2.28503542       0.28817181      -0.12450112
C        1.81989213       0.50787371       1.26791365
N        1.46372281       0.69725710       2.36431741
N        3.13543061       1.27036884      -0.69382665
C        4.07555505       1.95996050       0.24845887
C        2.89871584       2.68522250      -0.25854625
H        5.06052722       2.11765399      -0.19192322
H        4.06244668       1.65106155       1.29667474
H        2.08222144       2.87151627       0.44356129
H        2.99194892       3.39250620      -1.08317423
