17
Properties=species:S:1:pos:R:3 -1707.122920153491=T 11.865587=T 13.22923=T -9.9245=T -7.7472=T -9.9=T 1.0049=T 0.0361=T 2.211=T 9.47375=T -1.78498=T 4.3683491436=T 10.5757950238=T 0.580210062=T pbc="F F F"
C        0.94476966       0.17396199      -0.87991871
C        2.46670022       0.18091447      -0.74408293
C        2.99501172       1.40945211       0.01142794
O        2.47160276       1.35943787       1.34519490
C        2.71519854       2.55179851       2.08651166
C        4.46420787       1.46077360       0.00016245
C        5.67797953       1.49393563      -0.00108726
H        0.60979272      -0.72025688      -1.42369643
H        0.59003860       1.05537464      -1.43615702
H        0.46095979       0.17665095       0.10556314
H        2.94547194       0.16828657      -1.73485628
H        2.81559562      -0.71552059      -0.20845007
H        2.61620209       2.32822366      -0.48800781
H        2.23860780       2.41392021       3.06485289
H        2.26987266       3.43260729       1.58670821
H        3.79514165       2.72985152       2.22818352
H        6.74865684       1.52184844      -0.00109819
