14
Properties=species:S:1:pos:R:3 -1499.977512525179=T 9.942086=T 10.45011=T -8.734=T -6.5782=T -8.741=T 1.1658=T 0.1408=T 1.416=T 8.28825=T -0.79711=T 5.8747790436=T 0.254500153=T pbc="F F F"
C        0.37401690       1.42224429       0.53217658
C        0.90510712       0.42050126      -0.46195770
C        0.98262510      -1.04692828      -0.03969043
C       -0.45459512      -1.40957785       0.26978085
C       -1.29912935      -0.40332447      -0.01610798
C       -0.57342616       0.81038714      -0.48764311
H        0.66681772       2.46325036       0.38679772
H        0.25040393       1.11414954       1.57275822
H        1.58192261       0.78431305      -1.23527767
H        1.64542272      -1.19764906       0.82988429
H        1.38583360      -1.67893446      -0.85054997
H       -0.74414290      -2.37138444       0.69554518
H       -2.38224422      -0.43517189       0.11277903
H       -0.99715194       1.44834481      -1.26522501
