14
Properties=species:S:1:pos:R:3 -1434.2679559195167=T 10.202852=T 10.68452=T -9.6511=T -7.3583=T -9.623=T 1.1677=T -0.634=T -0.194=T 9.07132=T 0.74461=T 4.3331991126=T 6.369842743=T 0.275675551=T pbc="F F F"
N        2.13931094      -0.86651311       1.02774550
C        1.46258607       0.11536027       0.17261184
C        2.34713092       1.30708645      -0.09950353
C        1.99006554       2.58565503       0.04999254
O        3.69058397       1.04852575      -0.43986170
C        3.97720598       0.13964983      -1.41697904
O        3.19912948      -0.37530736      -2.18505926
H        1.61026546      -1.73944100       1.04167948
H        2.18978397      -0.52777803       1.99128451
H        0.51091590       0.51406814       0.57292674
H        1.23737403      -0.37718715      -0.78467540
H        0.99057137       2.83234983       0.40364895
H        2.68030898       3.39573841      -0.18041779
H        5.07152738      -0.02436705      -1.40549284
