15
Properties=species:S:1:pos:R:3 -1543.8966720283988=T 9.647088=T 10.62759=T -9.2467=T -7.0822=T -10.861=T 0.8317=T -0.1347=T 2.78=T 10.45259=T -2.44619=T 8.6274542226=T 11.0980736502=T 0.140679434=T pbc="F F F"
O        1.08686682       0.08310043       0.21779072
C        2.49633332      -0.01401860      -0.04558011
C        2.79923769      -1.43125092      -0.55507331
O        2.88104497      -1.36889380      -1.99400085
C        3.25911109      -0.04931140      -2.34764582
C        2.14501872       0.95252637      -2.43474687
C        3.01052943       0.87402042      -1.18252013
H        0.88151114       1.02172153       0.37240649
H        3.06363495       0.19461266       0.87974765
H        2.00413045      -2.13881205      -0.28306234
H        3.76328831      -1.78460123      -0.14453469
H        4.14395347       0.01670449      -2.98571971
H        2.27941827       1.82380793      -3.07722887
H        1.12954235       0.56152802      -2.36251938
H        3.68982902       1.69390615      -0.94793279
