11
Properties=species:S:1:pos:R:3 -1197.7427698628958=T 11.131227=T 11.78765=T -7.8375=T -5.9191=T -8.291=T 0.7015=T -0.2734=T 0.137=T 7.7985=T 0.49902=T 3.6264789126=T 11.138344303=T 0.502473037=T pbc="F F F"
N        0.99169146      -0.06082791      -0.22180529
C        2.36231776       0.10221588      -0.07428485
C        3.18512674       1.19949834      -0.02046248
C        4.51315955       0.65966130       0.02537571
Cl       5.97744544       1.58603744       0.10596940
C        4.42760586      -0.69961727       0.00153308
O        3.08758908      -1.05629308      -0.06419265
H        0.46201774       0.75480319       0.07653521
H        0.64205150      -0.90752279       0.22558608
H        2.90189473       2.24555435      -0.01232069
H        5.14637016      -1.50727945       0.02500648
