22
Properties=species:S:1:pos:R:3 -2082.8181326797385=T 12.869389=T 14.3272=T -9.1424=T -6.8992=T -10.567=T 0.8857=T -0.0654=T 3.001=T 9.91071=T -2.68338=T 8.6646872184=T 10.5536015298=T 0.139434415=T pbc="F F F"
C        1.23521508      -0.73564684       1.60910666
C        2.72511198      -0.38844423       1.65568810
C        3.06732569       1.04075551       1.19489455
C        2.37835270       2.15025667       2.01901284
C        2.68780747       2.15061741       3.51985713
C        4.59502618       1.21769494       1.13071086
N        4.97207097       2.51884775       0.55447155
H        1.06837412      -1.78935506       1.87579754
H        0.82168912      -0.57836402       0.60030618
H        0.64656556      -0.12302415       2.30755828
H        3.27790714      -1.09818810       1.01645111
H        3.10860088      -0.54809569       2.67847073
H        2.69168876       1.14186876       0.15621525
H        1.28856850       2.07616895       1.87296002
H        2.68575780       3.11695359       1.59251210
H        2.36957591       1.22018765       4.01433471
H        2.16458205       2.97988383       4.01753805
H        3.76216321       2.28440004       3.71535507
H        5.01808547       0.35027330       0.58308356
H        5.01262359       1.17211303       2.15068367
H        4.72572893       2.53793600      -0.43948959
H        5.98675891       2.63598067       0.59577160
