12
Properties=species:S:1:pos:R:3 -1305.3053020247717=T 11.511658=T 11.49223=T -9.4097=T -7.5352=T -9.795=T -0.7121=T -2.4274=T -1.068=T 9.13815=T 1.41052=T 4.4865945918=T 4.8260806584=T 0.360824162=T pbc="F F F"
N        0.96929208       0.00060941       0.01812021
C        2.34434646      -0.09380208      -0.16177450
N        3.04099368      -1.17051594      -0.30302945
C        3.02095458       1.22351744      -0.25676700
C        4.35609247       1.32565407      -0.40764241
C        5.03139739       2.56908341      -0.49680889
N        5.61515391       3.58125010      -0.57148725
H        0.59745658       0.85692035       0.41937580
H        0.47908476      -0.84183826       0.30391384
H        2.46396987      -2.01629325      -0.21436594
H        2.40845990       2.12660097      -0.20286105
H        4.95112832       0.40962379      -0.46761336
