16
Properties=species:S:1:pos:R:3 -1591.2689137012399=T 11.490945=T 12.31457=T -8.6242=T -6.5659=T -9.418=T 0.8431=T -0.1938=T 1.235=T 8.95794=T -0.7343=T 6.3911435378=T 0.443317327=T pbc="F F F"
C        1.42020031       3.14409019      -0.32630668
C        2.62825323       2.61584769      -0.55234447
O        3.17208060       1.64870384       0.25072190
C        4.54562853       1.34786818       0.00865469
C        5.63836775       2.15181736       0.75276063
N        6.32017188       0.86859126       1.14433206
C        5.07643565       0.11455357       0.75326775
H        1.02420604       3.88471854      -1.01665852
H        0.81674525       2.84511361       0.53026338
H        3.24555500       2.91428709      -1.40793235
H        4.73332948       1.29722932      -1.07913074
H        5.23675157       2.66053864       1.64330530
H        6.24459277       2.86030733       0.17061320
H        7.05776976       0.66487971       0.46433742
H        5.22962505      -0.80727331       0.17544890
H        4.47092713      -0.11187302       1.64470753
