14
Properties=species:S:1:pos:R:3 -1482.937677091413=T 9.942656=T 11.02301=T -10.5824=T -8.3949=T -11.384=T 0.6698=T -0.4097=T 1.468=T 11.4595=T -1.03695=T 5.372437366=T 9.8332304712=T 0.185851328=T pbc="F F F"
O        0.86907504      -0.03002809       0.09803134
C        2.28557163      -0.00745454       0.06285441
C        3.06791023       1.07540269       0.88233440
C        4.13187414      -0.00223637       1.21582633
C        3.10144918      -1.09783867       0.83847528
C        2.67561196       0.02713364      -1.35359745
N        3.05748875       0.05521870      -2.45487883
H        0.60649642      -0.05257438       1.03569262
H        2.47261634       1.34880766       1.76651323
H        3.37286469       1.98686525       0.35460639
H        4.97194581       0.02498389       0.50987804
H        4.52588345      -0.01680389       2.23868750
H        3.43396246      -1.97752350       0.27469691
H        2.51536991      -1.42477240       1.71055984
