15
Properties=species:S:1:pos:R:3 -1482.991873869022=T 10.452281=T 10.95335=T -7.9144=T -5.9001=T -9.066=T 0.7683=T -0.1761=T 0.79=T 8.63563=T -0.17572=T 5.2184839498=T 11.6033413974=T 0.157800197=T pbc="F F F"
C        0.96896740       0.21258283      -0.40874987
O        2.35529490       0.15303357      -0.05315697
C        3.02580584       1.33726903      -0.06403885
N        4.30845575       1.34223547      -0.18278802
N        4.75744803       2.65620436       0.09577381
C        3.61372024       3.57638459      -0.13004210
C        2.42660505       2.69246358       0.26899002
H        0.60922471      -0.82190111      -0.37454406
H        0.83307039       0.60913197      -1.42813062
H        0.38886661       0.81880513       0.30520021
H        5.55516075       2.84920839      -0.51243177
H        3.51971436       3.85793558      -1.19693619
H        3.71879397       4.48670998       0.47440295
H        1.50475012       2.93576115      -0.27344766
H        2.21428188       2.74570549       1.35249913
