12
Properties=species:S:1:pos:R:3 -1383.7186675665962=T 11.458287=T 10.68955=T -8.757=T -6.9585=T -9.142=T -0.5079=T -2.1502=T -1.146=T 8.5542=T 1.60848=T 3.9711227968=T 4.4428771282=T 0.614203255=T pbc="F F F"
C        1.03317547      -0.03985999      -0.16114208
C        2.36464199       0.00527552       0.06099909
N        3.22919092      -1.07297454       0.23795118
C        4.55206511      -0.65229706       0.44740863
O        5.51507922      -1.38642205       0.63064280
C        4.48292986       0.83475900       0.39182946
C        3.20364498       1.20450284       0.16631160
H        0.48569553      -0.97939785      -0.22525217
H        0.47576005       0.88670661      -0.28210629
H        2.96279735      -2.05184662       0.22217718
H        5.36017299       1.46238039       0.52028882
H        2.80194654       2.21081375       0.06908178
