11
Properties=species:S:1:pos:R:3 -1259.9182634686624=T 10.552539=T 11.46315=T -10.1861=T -8.0597=T -10.677=T -0.4764=T -2.3456=T -1.098=T 10.12777=T 1.6709=T 3.5203220994=T 10.5807668624=T 0.490412464=T pbc="F F F"
O        1.16238601      -0.36365291       0.10592376
C        2.18553320       0.09966253      -0.34448130
C        3.00079464       1.18196512       0.38406341
C        4.42870603       0.99638615       0.23686241
C        5.61310681       0.77026715       0.04691080
C        7.02717996       0.55030288      -0.10544311
O        7.54890993       0.11562939      -1.12392212
H        2.60310967      -0.21454516      -1.33133027
H        2.68500445       1.22049424       1.43706585
H        2.71008605       2.14389085      -0.07897905
H        7.63205326       0.81029976       0.79554962
