14
Properties=species:S:1:pos:R:3 -1451.8967572821966=T 9.433512=T 10.39413=T -9.2417=T -7.241=T -10.526=T 1.2408=T -0.5201=T 0.287=T 9.50127=T 0.42322=T 3.7911447192=T 12.0960989572=T 0.311856526=T pbc="F F F"
C        1.01586497      -0.14967490       0.01344304
C        1.99957276       0.64313093      -0.82304202
O        2.05712079       0.52528657      -2.04332116
C        2.89739105       1.57754286      -0.07799347
C        4.30492610       1.78765339      -0.62985604
C        3.29646884       2.87380190      -0.77845902
H        0.36523266       0.53402597       0.58043680
H        1.55622642      -0.75946070       0.75419910
H        0.40804814      -0.79513981      -0.62927287
H        2.77617930       1.61437702       1.00571603
H        4.54289816       1.20380183      -1.51968322
H        5.10479401       1.90369033       0.10097293
H        3.37911017       3.76285975      -0.15381733
H        2.85990664       3.01665485      -1.76759277
