17
Properties=species:S:1:pos:R:3 -1752.5964451411355=T 11.1743=T 12.50118=T -9.0634=T -7.0274=T -10.387=T 1.0193=T -0.6918=T 0.364=T 9.55313=T 0.42553=T 3.7529198354=T 10.673148831=T 0.092445749=T pbc="F F F"
C        0.91719842       0.01162091       0.07740675
C        2.43732920       0.01614475       0.04840559
C        3.18717667       1.09529946       0.89266253
C        4.12754762      -0.02162833       1.36307878
O        5.24016100      -0.03734146       1.84175569
C        3.19065433      -1.11769732       0.82700187
C        3.79154636      -2.30896780       0.09876407
H        0.50933662      -0.86862853      -0.44177915
H        0.50315301       0.90649869      -0.41047846
H        0.54570912      -0.00726674       1.11416631
H        2.80189675       0.04273665      -0.99141368
H        2.57704948       1.47841862       1.72693889
H        3.65533362       1.94500670       0.37774585
H        2.55638109      -1.45602793       1.66830930
H        4.43358437      -1.97877801      -0.73090432
H        3.00745993      -2.96085830      -0.31308689
H        4.40971240      -2.90928137       0.78062688
