14
Properties=species:S:1:pos:R:3 -1447.5143329710804=T 12.270092=T 11.95154=T -8.6696=T -6.7761=T -9.307=T -0.0608=T -1.6653=T -0.634=T 8.70958=T 1.24947=T 4.8480633762=T 5.5509028144=T 0.412121399=T pbc="F F F"
O        1.45537959      -0.28308221      -0.15098159
N        2.79727141       0.13869557      -0.03726583
C        2.90715159       1.43968563      -0.00188990
C        1.76613084       2.35828968       0.02561876
C        1.85074394       3.68890067      -0.15008214
C        4.28783251       1.96035586       0.04513192
C        5.34791587       1.37563263      -0.53204398
H        1.55460886      -1.24967662      -0.09449122
H        0.79196868       1.89691016       0.19327493
H        2.79611156       4.19377618      -0.35574914
H        0.95821733       4.31400683      -0.10807109
H        4.42085721       2.89441813       0.59787392
H        5.24072571       0.45708462      -1.11049230
H        6.34649490       1.80157287      -0.43137235
