15
Properties=species:S:1:pos:R:3 -1572.8056199189828=T 12.362956=T 13.95233=T -8.9516=T -6.8288=T -9.326=T 0.8228=T -0.0315=T 1.144=T 9.03961=T -0.63107=T 4.1892761638=T 10.2246542732=T 0.743202279=T pbc="F F F"
C        0.97388173      -0.02735522      -0.00703396
C        2.42734251       0.00229658       0.00462362
C        3.64135760       0.04344641       0.01716290
C        5.09314923       0.04187537       0.01442707
O        5.58331130       1.32030366       0.47662192
C        6.94054076       1.43987590       0.51913230
C        7.87358221       0.53252653       0.18945132
H        0.56522882       0.99386526       0.01002549
H        0.57597863      -0.56453757       0.86646944
H        0.59500103      -0.52330460      -0.91290404
H        5.48122963      -0.14620462      -1.00390358
H        5.48396995      -0.75415960       0.67510661
H        7.20478648       2.43625810       0.88036297
H        7.64973807      -0.46848437      -0.17372949
H        8.92123204       0.80857816       0.28895743
