14
Properties=species:S:1:pos:R:3 -1472.6826709776824=T 10.390657=T 11.71533=T -10.1827=T -8.0162=T -11.081=T 0.8052=T -0.1744=T 1.364=T 10.68581=T -0.9848=T 5.2882880678=T 10.6475705192=T 0.360891582=T pbc="F F F"
C        2.43150964      -0.87642750      -0.87534865
O        2.02477085       0.34337468      -0.24550163
C        3.10985660       1.18571327       0.00307437
C        3.57670015       2.13511975      -1.06465878
C        2.76192820       2.65299003       0.12545336
C        3.38962241       3.45247100       1.13734215
N        3.91398729       4.09926584       1.95701269
H        1.52139945      -1.46855259      -1.02493864
H        3.13181146      -1.44098134      -0.23512434
H        2.91128770      -0.68455972      -1.85057880
H        3.86056759       0.79272058       0.69987825
H        3.04680852       2.12007802      -2.01668675
H        4.63260558       2.40008826      -1.10524325
H        1.71777455       2.89582970      -0.07913999
