15
Properties=species:S:1:pos:R:3 -1431.6040902922343=T 9.539958=T 10.62124=T -9.5587=T -7.3087=T -11.016=T 1.0194=T 0.0597=T 3.126=T 10.36896=T -2.8247=T 8.9026039538=T 11.6487202734=T 0.159257753=T pbc="F F F"
C        1.36994306      -0.22751028      -0.66712615
O        2.76995719       0.00335719      -0.62300638
C        3.08258275       1.19864258       0.08748233
C        4.57867886       1.36860928       0.12303729
C        5.29836548       2.07693197      -0.96736672
N        5.03887439       2.76091441       0.31999162
H        1.21278745      -1.16267672      -1.21953545
H        0.83899333       0.59278001      -1.18715677
H        0.94194499      -0.33126092       0.34845117
H        2.68014965       1.14448747       1.12044361
H        2.62647169       2.08278225      -0.40056475
H        5.12269576       0.56808948       0.63434820
H        4.72932552       2.47062788      -1.81310236
H        6.31601953       1.75607647      -1.20138736
H        5.89201035       2.75976893       0.88714172
