11
Properties=species:S:1:pos:R:3 -1246.7799152237421=T 10.144507=T 9.75267=T -8.8906=T -6.9243=T -9.296=T -0.8872=T -2.6865=T -1.664=T 8.71312=T 1.88867=T 3.064251997=T 6.1776396458=T 0.573369484=T pbc="F F F"
N        1.00783679       0.06524796      -0.08325076
C        2.35645542      -0.08369513      -0.02483767
C        3.16354790      -1.17959978      -0.01398207
C        4.54233200      -0.67632361       0.01328146
O        5.58931343      -1.29022875       0.03441339
N        4.51703337       0.83053952       0.01580866
C        3.26929862       1.11746231      -0.00930476
H        0.39569257      -0.73567003       0.02604708
H        0.59607526       0.97655000       0.08577482
H        2.90363243      -2.23269232      -0.02039117
H        2.90084220       2.15070984      -0.01903898
