21
Properties=species:S:1:pos:R:3 -2018.165290326566=T 12.136694=T 13.53866=T -9.9054=T -7.7181=T -11.821=T 0.8718=T -0.0755=T 2.751=T 11.37304=T -2.43987=T 9.594284652=T 10.8455017696=T 0.102150891=T pbc="F F F"
C        2.90138950      -0.89157564       1.34138660
C        2.54511935      -0.03069031       0.12366775
C        3.11799070       1.40566187       0.11942718
C        2.51222824       2.26436580       1.23770962
C        4.66248839       1.45949489       0.15441197
C        5.33804046       0.61997366      -0.92894838
O        5.13151588       2.82306616       0.09064952
H        2.42352404      -1.87882332       1.26560502
H        2.56012465      -0.43548768       2.28166261
H        3.98509775      -1.06072044       1.42807586
H        1.44722576       0.05029910       0.05466928
H        2.86188114      -0.55235744      -0.79349638
H        2.81915549       1.85460182      -0.84977320
H        2.76909260       1.86792319       2.23205154
H        1.41523128       2.29116057       1.15954029
H        2.89046885       3.29319336       1.18954670
H        5.00861617       1.11652601       1.14443141
H        4.97735690       0.90731321      -1.93082553
H        5.14706203      -0.45457544      -0.80014323
H        6.42386323       0.78135270      -0.89512217
H        4.89203759       3.16725793      -0.78969647
