15
Properties=species:S:1:pos:R:3 -1469.611380351149=T 10.204565=T 10.59745=T -8.2475=T -6.3191=T -9.621=T 0.6505=T -0.3651=T 0.629=T 8.9485=T -0.04882=T 5.4697911732=T 8.5662795302=T 0.124183746=T pbc="F F F"
C        1.72512462      -0.12423944      -0.10078190
C        0.83728844      -1.19565761       0.53303957
N       -0.39880245      -1.39733383      -0.23921003
C       -1.41746128      -0.46592254      -0.22893797
N       -1.43591544       0.80556872       0.01616767
O       -0.16355155       1.40001853       0.37876201
C        0.89193213       1.08844140      -0.54459607
H        2.26006979      -0.53123679      -0.97417829
H        2.48279276       0.18067761       0.63723394
H        1.36471793      -2.15893157       0.56377137
H        0.59435941      -0.91758636       1.57139371
H       -0.73003615      -2.35606247      -0.28484054
H       -2.39639965      -0.85696861      -0.52550163
H        1.51701414       1.99374523      -0.59620876
H        0.45603729       0.92404775      -1.54342308
