17
Properties=species:S:1:pos:R:3 -1773.8893608087587=T 13.093816=T 15.18476=T -8.7534=T -6.5831=T -8.832=T 0.8847=T 0.0628=T 2.438=T 8.43293=T -1.94504=T 4.0908188812=T 9.0302847366=T 0.417269818=T pbc="F F F"
C        0.96413518       0.00353965      -0.00031372
C        2.41979125       0.00408362       0.01222729
C        3.63770553       0.00357008       0.02635189
C        5.07302172       0.00333928       0.04064308
C        5.86000267      -0.73735358      -1.03915645
C        5.86755603       0.76602600      -1.01652918
C        7.10835662       1.52873031      -0.61589693
H        0.55905837       1.02721964       0.00221209
H        0.56006960      -0.51699463       0.88137486
H        0.57359974      -0.50762030      -0.89352554
H        5.52626978      -0.00840118       1.03659866
H        5.27863152      -1.24400765      -1.80901576
H        6.76272355      -1.26032353      -0.71821186
H        5.24689754       1.24700462      -1.77649163
H        7.66490653       0.99468037       0.16902993
H        6.85659625       2.52755683      -0.22881295
H        7.78642811       1.65934046      -1.47326378
