22
Properties=species:S:1:pos:R:3 -2083.932327428323=T 12.994145=T 14.54339=T -9.1479=T -6.9034=T -10.582=T 0.8783=T -0.0815=T 3.045=T 9.93122=T -2.74446=T 8.6909598518=T 11.0407301252=T 0.164593052=T pbc="F F F"
C        1.56601969       2.09022803      -1.39188512
C        2.84660434       2.36019715      -0.59842480
C        3.97226148       1.38078256      -0.94397690
C        5.25172207       1.52712915      -0.10125676
C        6.23420136       0.38709230      -0.40453745
C        5.92898021       2.90291318      -0.25688218
N        6.31008408       3.18332475      -1.65171013
H        0.77292582       2.80879027      -1.13851098
H        1.17848005       1.07925786      -1.19086992
H        1.75031904       2.16401451      -2.47478380
H        2.62906634       2.30450636       0.48336495
H        3.17899435       3.39260937      -0.79541676
H        4.23729748       1.49544329      -2.00868184
H        3.59502002       0.34962926      -0.82107234
H        4.96797349       1.44983508       0.96577378
H        6.52031265       0.37778498      -1.46837957
H        5.78185599      -0.59129824      -0.18490135
H        7.15245954       0.47470090       0.19704214
H        6.78049614       2.94627023       0.45434265
H        5.22434216       3.68922851       0.05562350
H        7.12802209       2.62719177      -1.91241882
H        6.59356162       4.16055872      -1.74292830
