18
Properties=species:S:1:pos:R:3 -1746.7784122470875=T 11.276302=T 12.51714=T -8.681=T -6.5575=T -9.97=T 0.8207=T -0.1753=T 2.911=T 9.50805=T -3.07834=T 7.7015887676=T 11.5166503862=T 0.152748119=T pbc="F F F"
C        1.05730486       0.00750660      -0.10697101
C        2.56948929       0.03495511      -0.13173276
C        3.34953223      -0.61164927      -1.26847906
C        3.33876756       0.90791699      -1.09192200
N        2.62541685       1.79742012      -1.99023167
C        4.61451526       1.54876172      -0.59213993
O        5.55597678       1.79338552      -1.65129057
H        0.65332571       0.85240292       0.46981748
H        0.69494007      -0.92367831       0.35368519
H        0.62289802       0.05920664      -1.11567813
H        3.02677345      -0.06868234       0.85766086
H        2.76547434      -1.01749957      -2.09755769
H        4.24840767      -1.18499566      -1.02677705
H        1.85956704       1.31293408      -2.46090920
H        3.27599738       2.09811262      -2.72232313
H        5.06379330       0.92390642       0.20089176
H        4.38980532       2.54015903      -0.17128600
H        5.77815489       0.92594738      -2.03663708
