18
Properties=species:S:1:pos:R:3 -1749.7401240200682=T 12.087414=T 13.13508=T -9.3923=T -7.1377=T -9.369=T 1.121=T -0.2651=T 1.214=T 8.83014=T -0.58418=T 6.3701775052=T 0.367515175=T pbc="F F F"
C        4.04023404      -0.93158231      -0.95130163
C        2.87596054      -0.25272710      -0.23605927
O        2.48283882      -0.99360144       0.94510888
C        3.09128280       1.19329674       0.12976051
C        4.18227415       1.93267026      -0.11678272
C        4.33895340       3.36961914       0.28966106
N        5.58539966       3.55046701       1.05467346
H        4.25180589      -0.45110555      -1.91745068
H        3.78874293      -1.98415081      -1.13417164
H        4.95655700      -0.89663928      -0.34244353
H        1.98133954      -0.31433580      -0.88125737
H        3.19149754      -0.86332914       1.60238709
H        2.25034550       1.64609421       0.66981472
H        5.04256705       1.50281475      -0.64053040
H        3.42060451       3.70418784       0.81248305
H        4.42937831       3.98758606      -0.62105063
H        5.49707549       3.09068057       1.96460150
H        5.73797282       4.54363483       1.24408761
