8
Properties=species:S:1:pos:R:3 -929.2045006428167=T 8.571671=T 8.91913=T -10.5662=T -8.3097=T -10.035=T 0.6128=T -1.3033=T 0.146=T 9.62946=T 0.17008=T 3.6038514676=T 7.8974494518=T 1.075912069=T pbc="F F F"
C        1.02747314      -0.00388692       0.00292003
C        2.47339881      -0.00076832       0.00057324
C        3.69345413       0.00041362      -0.00029201
C        5.05723882       0.00106392      -0.00077989
N        6.23202592       0.00132986      -0.00099800
H        0.63503163       1.02136225       0.06787074
H        0.64063493      -0.57353909       0.86038638
H        0.63686260      -0.46244534      -0.91713050
