15
Properties=species:S:1:pos:R:3 -1528.0510662568702=T 11.44047=T 11.51435=T -8.171=T -6.316=T -8.84=T 1.0436=T -0.5794=T -0.28=T 8.37428=T 0.87958=T 4.0556688502=T 4.5407268794=T 0.319864417=T pbc="F F F"
C        0.94846674       0.00700827      -0.03561396
C        2.45096442      -0.08014211      -0.02214243
C        3.10084786      -1.27008582      -0.13650091
N        2.49600349      -2.48334469      -0.39234061
C        3.19990556       1.17575306       0.21765169
N        4.56213842       1.17205737      -0.09419377
O        2.67273729       2.17775712       0.71313365
H        0.53181084      -0.16251129      -1.04256076
H        0.64443156       1.00644847       0.29895337
H        0.48690127      -0.72863847       0.64468592
H        4.18667450      -1.32536874      -0.03546144
H        1.48609889      -2.53006958      -0.28190112
H        2.98470409      -3.31952158      -0.08970196
H        4.85409189       0.63853080      -0.90833252
H        4.97898317       2.09780720      -0.02661515
