18
Properties=species:S:1:pos:R:3 -1781.4400770251816=T 11.508715=T 12.94258=T -9.1783=T -7.2485=T -10.544=T 0.7335=T -0.2177=T 0.629=T 9.49663=T 0.056=T 4.351412656=T 12.0739302604=T 0.136038482=T pbc="F F F"
C        1.22126907      -0.46234445       1.11890845
C        2.69051818      -0.60773094       0.72276208
C        3.12019151       0.41017797      -0.34108621
C        4.54912648       0.17306704      -0.82174852
O        4.95134556      -0.94155626      -1.16107541
N        5.34510558       1.29226719      -0.85445552
C        6.71623600       1.26371930      -1.33349326
H        0.94067265      -1.20434099       1.88032955
H        0.55899829      -0.60827592       0.25135519
H        1.00992138       0.53568333       1.53399882
H        2.88618323      -1.61580771       0.32806641
H        3.33190961      -0.49381490       1.61271304
H        2.98875566       1.43880742       0.03466794
H        2.46789212       0.30757050      -1.22518093
H        4.93871103       2.17937138      -0.57555099
H        6.95233697       0.21861439      -1.56754079
H        7.41445749       1.62758442      -0.56505369
H        6.83733918       1.87068823      -2.24396614
