18
Properties=species:S:1:pos:R:3 -1742.6079544980785=T 11.068713=T 12.20565=T -9.3731=T -7.3112=T -10.856=T 0.9044=T -0.0709=T 2.653=T 10.22548=T -2.33262=T 8.4607178498=T 11.4132708594=T 0.15569297=T pbc="F F F"
C        0.77147720       0.28876199      -0.51004587
C        2.18600913       0.00890439      -0.04177352
C        2.43956959       0.13647361       1.45477460
C        1.63958989      -0.83746903       2.32397723
O        1.97448175      -2.21002660       2.09441402
C        3.04199819      -0.93705629      -0.82689158
N        3.22729853       0.52737483      -0.96073888
H        0.72277647       0.24893588      -1.60559497
H        0.45172007       1.29385618      -0.19377510
H        0.05270630      -0.43900133      -0.10432934
H        2.19220630       1.16598322       1.77138101
H        3.51348553      -0.01812403       1.65575106
H        0.55434798      -0.66949587       2.18630901
H        1.86315634      -0.65422706       3.38514756
H        1.87282777      -2.37465918       1.13990773
H        2.63763654      -1.42490702      -1.71807976
H        3.80115511      -1.51161941      -0.28890656
H        4.04888730       0.80914571      -0.41347661
