15
Properties=species:S:1:pos:R:3 -1489.6297495767785=T 12.121871=T 11.75192=T -8.5069=T -6.7095=T -9.121=T 0.1397=T -1.5486=T -1.219=T 8.49661=T 1.68014=T 3.299639418=T 4.1384295052=T 0.397990779=T pbc="F F F"
C        1.44570653      -0.43615516      -0.89673333
N        2.87413679      -0.25263976      -0.70402540
N        3.32535856       0.98200876      -0.51734975
C        4.55961010       1.15350777      -0.10226968
C        5.52717719       0.05761500       0.22325839
C        4.95487888       2.55817393       0.02409298
O        6.05845059       2.93898120       0.40946639
H        1.27190494      -1.40556602      -1.38103449
H        1.07858679       0.36254496      -1.55164365
H        0.88510304      -0.40209670       0.05272878
H        3.40979070      -1.04084070      -0.32776525
H        5.15516661      -0.59611802       1.03079420
H        6.47066075       0.50846964       0.55514679
H        5.73145573      -0.57714021      -0.65465087
H        4.14772280       3.27469531      -0.26247510
