15
Properties=species:S:1:pos:R:3 -1519.2035946175677=T 10.762264=T 11.15807=T -9.4354=T -7.5802=T -10.296=T 0.8779=T -0.8557=T -0.27=T 9.87139=T 0.80158=T 4.120302752=T 5.6071800598=T 0.303658823=T pbc="F F F"
C        0.95988321      -0.50997273      -0.28965724
N        2.37369266      -0.28845764       0.00977710
C        3.24639420      -1.38433642      -0.03386615
N        2.97191755      -2.60379382      -0.31387554
C        2.78929213       1.02106189       0.32837664
C        4.25846671       1.24101020       0.63250506
O        1.98383509       1.94490436       0.35524762
H        0.45075380       0.45362136      -0.19716755
H        0.52467770      -1.22647778       0.42183822
H        0.83923852      -0.89324138      -1.31323395
H        4.28269004      -1.13207512       0.20725906
H        1.97363782      -2.73705187      -0.52561870
H        4.89711327       0.97210242      -0.22009829
H        4.58826735       0.65646270       1.50234413
H        4.38371995       2.30585382       0.85034959
