13
Properties=species:S:1:pos:R:3 -1388.1609919790271=T 9.926338=T 10.23437=T -8.6091=T -6.6202=T -9.173=T 0.924=T -0.7118=T 0.338=T 8.72199=T 0.31643=T 4.3246688758=T 5.7918324096=T 0.157459927=T pbc="F F F"
N        0.97049448       0.00446078      -0.12816383
C        2.42359155      -0.11444436       0.02811471
C        3.06700495      -1.31768498      -0.61821657
C        4.03529250      -0.89254070      -1.44768250
N        4.10923831       0.51640789      -1.46801584
C        3.11276337       1.07480161      -0.68415560
O        2.82997618       2.25982819      -0.58545643
H        0.71846809       0.98432404       0.03986396
H        0.49434915      -0.55049960       0.58569314
H        2.76627608      -0.05580488       1.08630694
H        2.82039957      -2.35328675      -0.40436510
H        4.73287285      -1.47015746      -2.04959358
H        4.65942294       1.06666623      -2.12076930
