12
Properties=species:S:1:pos:R:3 -1324.9522575349208=T 10.097124=T 11.20045=T -10.7467=T -8.3927=T -10.339=T 0.9332=T -0.4489=T 1.209=T 9.94386=T -0.90247=T 4.393629889=T 10.4330623406=T 0.296490356=T pbc="F F F"
O        0.97119336      -0.02556757      -0.02026482
C        2.40600185      -0.00106085       0.02896541
C        2.85909144      -0.81951677      -1.20350488
C        4.29227604      -1.07964871      -1.22040381
N        5.43739648      -1.29879013      -1.22571087
C        2.93849829       1.36050885       0.02624617
C        3.34395765       2.50361254       0.04656041
H        0.64562231       0.67639530       0.57059497
H        2.76740455      -0.51763679       0.93868097
H        2.56685909      -0.28413712      -2.11846314
H        2.31781995      -1.77715544      -1.18518183
H        3.71429899       3.50897671       0.05705141
