15
Properties=species:S:1:pos:R:3 -1622.3179196980925=T 12.899294=T 13.79424=T -8.9687=T -6.9178=T -9.045=T 1.351=T -0.2831=T 1.153=T 8.70524=T -0.55946=T 4.2982598578=T 6.2778327324=T 0.328677236=T pbc="F F F"
C        1.59759952      -0.29931499      -1.18036394
C        2.23728619       0.14385343      -0.08996090
C        3.35838634       1.11413247      -0.06714377
C        3.71523067       1.98262596      -1.23632568
C        3.04279660       2.62529261      -0.03044777
C        3.77465427       3.49343959       0.84184319
C        4.39970733       4.22849574       1.58188243
H        0.76472007      -0.99829193      -1.09893553
H        1.88470221       0.01239325      -2.18691593
H        1.91965826      -0.21828886       0.89420621
H        4.18780066       0.84342121       0.59123066
H        3.11547458       1.91302609      -2.14372124
H        4.76809455       2.21365503      -1.39354968
H        1.98562894       2.86972528      -0.16044495
H        4.94880980       4.87629511       2.23364690
