14
Properties=species:S:1:pos:R:3 -1508.544347482132=T 11.004268=T 11.36186=T -7.934=T -5.9662=T -7.811=T 0.8009=T -0.2815=T 1.109=T 7.33093=T -0.50357=T 4.7052934972=T 6.3147557632=T 0.450016294=T pbc="F F F"
O        2.93617574      -0.67707564      -1.16403936
C        2.28911003       0.01121785      -0.07160637
C        2.75624794       1.42467751      -0.05077798
C        2.07758380       2.61352686       0.17169700
C        3.03564297       3.66795437       0.15487590
C        4.27351463       3.09810199      -0.08815913
N        4.09271719       1.73635282      -0.19061855
H        2.73778486      -1.62460924      -1.07228152
H        2.53593521      -0.49732195       0.88136924
H        1.19056429       0.00546530      -0.18060648
H        1.00769676       2.70709427       0.33642158
H        2.84180958       4.72684742       0.29711904
H        5.25453730       3.54541142      -0.20834391
H        4.79308970       1.06258701      -0.48276947
