15
Properties=species:S:1:pos:R:3 -1501.1983115770533=T 11.197389=T 11.90586=T -8.5285=T -6.5595=T -9.308=T 0.8642=T -1.1904=T -0.28=T 10.29983=T 0.90472=T 3.679470529=T 9.0210601782=T 0.268155715=T pbc="F F F"
C        0.62268163       2.39131362       0.00923142
N        2.07150985       2.45148501      -0.00151151
C        2.69762387       1.34290754      -0.15602047
N        4.06425572       1.26540300      -0.17030820
C        4.89738151       2.42469866      -0.04419249
C        6.35239363       2.06602654      -0.15511475
O        6.76120371       0.93270770      -0.34094815
H        0.21304499       3.03252905      -0.78804432
H        0.23727707       2.78791896       0.96270085
H        0.21490511       1.36911323      -0.12645282
H        2.20085691       0.36208800      -0.28417610
H        4.53880266       0.38251237      -0.33969843
H        4.74046840       2.94962751       0.91939645
H        4.66888152       3.19050036      -0.81301041
H        7.05525341       2.92849846      -0.05426108
