16
Properties=species:S:1:pos:R:3 -1579.7232444888919=T 10.14552=T 10.97146=T -9.4901=T -7.258=T -10.737=T 1.6943=T -0.2641=T -0.177=T 10.7988=T 0.68608=T 4.3741392898=T 9.4031726316=T 0.130350976=T pbc="F F F"
C        1.63230729      -1.80271735       1.29928509
C        2.67648302      -1.04647739       0.46479230
N        3.67170686      -1.89580027      -0.21027155
C        2.03556323      -0.11883037      -0.56400121
O        1.29234905      -0.90283771      -1.55407092
C       -0.04422315      -0.69943071      -1.62454927
O       -0.70607763       0.06572281      -0.95643977
H        0.93792442      -1.11405743       1.80424828
H        2.12871434      -2.41008880       2.06975999
H        1.04005379      -2.48128541       0.66729310
H        3.23759381      -0.37265776       1.13803702
H        3.18993296      -2.51345358      -0.87117938
H        4.11898513      -2.50931217       0.47558584
H        2.81369079       0.40651932      -1.13294452
H        1.34704597       0.59497398      -0.09503689
H       -0.44975989      -1.35923717      -2.41684812
