15
Properties=species:S:1:pos:R:3 -1454.3933489013934=T 11.612374=T 12.70108=T -10.2425=T -8.2721=T -10.273=T 0.507=T -1.1023=T -0.155=T 10.06896=T 0.69411=T 5.0202799302=T 6.5429395976=T 0.38741677=T pbc="F F F"
C        1.19104742       0.05430485       0.38137577
C        2.59693766      -0.07758647      -0.11646079
C        3.15108203      -1.13532839      -0.71593708
S        3.63327753       1.40480547       0.03024708
C        3.94096615       1.51941678       1.80370316
O        4.93025732       1.14959751      -0.61575669
O        2.80095180       2.55862063      -0.35376660
H        0.69455811       0.91124256      -0.09543492
H        1.15494777       0.22174873       1.46892997
H        0.62348823      -0.85886843       0.16049255
H        2.57241926      -2.04575976      -0.88462406
H        4.18347757      -1.10104622      -1.06436536
H        2.99020308       1.63807599       2.33443360
H        4.56024303       2.41584310       1.93052955
H        4.48411303       0.62397364       2.12439384
