21
Properties=species:S:1:pos:R:3 -2012.477550890025=T 12.560506=T 14.23737=T -9.5087=T -7.3451=T -11.51=T 0.9608=T 0.0532=T 3.082=T 10.78032=T -2.81478=T 9.3108898518=T 11.505404856=T 0.12538628=T pbc="F F F"
C        1.44540032       0.26449553      -0.48584463
C        2.94603914       0.26617995      -0.26117436
O        3.38524813       1.61158728      -0.09206825
C        4.79120952       1.69608768       0.11896082
C        5.20786123       3.15871535       0.26781867
C        6.69479050       3.24030495       0.63078576
C        4.89048033       3.96457306      -0.99618720
H        1.08304336      -0.76456890      -0.61764907
H        1.18670861       0.84150442      -1.38451192
H        0.92373157       0.70927042       0.37284536
H        3.47089174      -0.19438010      -1.12322574
H        3.20755680      -0.33035648       0.63704678
H        5.33204198       1.23598449      -0.73679528
H        5.07058372       1.12670347       1.02991313
H        4.61916461       3.57576868       1.10433787
H        7.32125387       2.82096516      -0.17306912
H        6.91912745       2.68860692       1.55610780
H        7.00364940       4.28498894       0.77894671
H        5.46940659       3.58547794      -1.85452218
H        5.14779091       5.02544855      -0.86100408
H        3.82426021       3.89629270      -1.24904109
