19
Properties=species:S:1:pos:R:3 -1948.9472471738043=T 12.664319=T 13.86218=T -8.6142=T -6.5103=T -8.581=T 0.9236=T 0.0448=T 1.54=T 8.02834=T -0.84218=T 5.8720885474=T 0.302029593=T pbc="F F F"
C        1.10220997      -0.09129480       0.55198737
C        2.43495120       0.01857980      -0.18482210
C        2.82166166      -1.23349825      -1.01795863
C        3.60138892      -0.65684966      -2.17195232
C        3.44476971       0.67411817      -2.28114989
C        4.01150990       1.57470849      -3.33194225
C        2.52364041       1.19106506      -1.19472332
H        0.88434781       0.82049701       1.12845085
H        1.10140017      -0.93695705       1.25610231
H        0.27374107      -0.24515429      -0.15762922
H        3.23652040       0.17083967       0.55893705
H        1.91951539      -1.76258182      -1.38234212
H        3.39119337      -1.96850465      -0.42642258
H        4.18516636      -1.26806900      -2.86395644
H        4.62646980       2.37242715      -2.88285619
H        3.20855493       2.08039919      -3.89426344
H        4.63466568       1.02237550      -4.04870729
H        2.88915584       2.12177334      -0.72957696
H        1.53043741       1.42924613      -1.62386483
