12
Properties=species:S:1:pos:R:3 -1278.15363975817=T 9.62844=T 9.78113=T -8.998=T -7.0432=T -10.324=T -0.0345=T -1.7434=T -0.668=T 9.87027=T 1.19921=T 3.9736149154=T 5.5280769918=T 0.353757092=T pbc="F F F"
C        1.04237553      -0.03216714       0.11016245
C        2.37296626       0.03201152       0.00246046
C        3.30278770       1.20932054       0.03530812
O        4.54157897       0.74159063      -0.56131245
N        4.53496488      -0.67109237      -0.28842838
C        3.23925128      -1.17286060      -0.20414050
O        2.93292047      -2.35763376      -0.24791445
H        0.55394374      -1.00789655       0.08893851
H        0.42022639       0.85629810       0.22266171
H        3.50180838       1.52529651       1.07649133
H        2.97706158       2.07439649      -0.55666536
H        5.21902483      -1.13585336      -0.88617144
