17
Properties=species:S:1:pos:R:3 -1711.8631865984198=T 12.332695=T 14.22033=T -9.3791=T -7.1207=T -9.172=T 0.875=T -0.0098=T 2.446=T 8.73626=T -1.98571=T 4.1663883482=T 10.0485197616=T 0.29230524=T pbc="F F F"
C        1.10898942      -0.26731182      -0.14421894
O        2.44434070      -0.02933590       0.28145125
C        2.90061560       1.30654120      -0.02061787
C        2.33781785       2.34520392       0.96196508
C        4.36275686       1.29793169      -0.00936347
C        5.57741245       1.33308559       0.00729731
C        7.03174375       1.35674364       0.02675796
H        0.90795169      -1.33005058       0.04128893
H        0.98635023      -0.06281046      -1.22519317
H        0.36768508       0.33265542       0.41461630
H        2.56181940       1.56329615      -1.04704851
H        2.65765821       2.10082190       1.98344652
H        1.24018999       2.36759968       0.92390168
H        2.70963732       3.34641042       0.70569451
H        7.40979073       2.38967534       0.05467505
H        7.45202404       0.86859310      -0.86511619
H        7.42253670       0.83443072       0.91270357
