14
Properties=species:S:1:pos:R:3 -1390.4897867525985=T 9.716208=T 10.80707=T -9.3654=T -7.1407=T -10.517=T 0.74=T -0.3074=T 1.452=T 11.41367=T -1.08232=T 5.3857286652=T 11.5895789514=T 0.278380179=T pbc="F F F"
C        1.44690921      -0.39730957      -0.11876078
N        2.88065225      -0.10339903      -0.11420593
C        3.15872558       1.32554782      -0.02886933
C        4.67769801       1.55508652       0.06641553
C        5.02173104       2.96562907       0.20140120
N        5.27771631       4.09824976       0.31227641
H        1.29766608      -1.47753717      -0.24814685
H        0.87616929       0.13250494      -0.90893289
H        1.01509174      -0.11544945       0.85340312
H        3.29965352      -0.47764751      -0.97009111
H        2.68122732       1.71335319       0.88497381
H        2.75009196       1.91537977      -0.87666354
H        5.18025497       1.16239473      -0.83289544
H        5.07832273       0.99956692       0.92795579
