11
Properties=species:S:1:pos:R:3 -1182.6891259509882=T 9.643935=T 9.90909=T -9.3036=T -7.2299=T -9.573=T 0.4924=T -1.214=T -0.253=T 9.13559=T 0.71121=T 4.946731435=T 5.1046400046=T 0.281451122=T pbc="F F F"
C        1.14462682      -0.04658351      -0.57832115
O        2.54976530      -0.06954470      -0.26341162
C        3.14948469       1.13591548      -0.22628759
C        4.46721754       1.25767187       0.05511250
C        5.09656120       2.52359978       0.09612660
N        5.64404129       3.55906241       0.13868378
H        0.81478468      -1.09036394      -0.56573332
H        0.97748695       0.38134475      -1.57795341
H        0.58635901       0.52599516       0.17729254
H        2.52354549       2.01032626      -0.43335769
H        5.07348702       0.37337646       0.25840936
