18
Properties=species:S:1:pos:R:3 -1743.4144910419425=T 11.977013=T 13.06981=T -8.8724=T -6.7078=T -9.495=T 0.988=T 0.0292=T 1.18=T 9.0313=T -0.70063=T 6.4097910322=T 0.369927636=T pbc="F F F"
N        1.34414550      -1.65932997      -0.32161150
C        2.60411848      -1.20158265       0.28905110
C        2.87891826       0.25058742      -0.10305258
C        4.10901301       0.84867170       0.55627576
O        5.27853020       0.16569028       0.06601276
C        6.47585584       0.59294461       0.55474447
C        6.71384989       1.57299621       1.44123998
H        1.13919177      -2.61326982      -0.01535504
H        1.45635053      -1.71194050      -1.33836756
H        3.48429981      -1.82058804       0.03124955
H        2.48288634      -1.25828682       1.38412128
H        2.00510124       0.86257944       0.17176862
H        2.98967478       0.32934642      -1.19822641
H        4.06505181       0.74196058       1.65639899
H        4.19691306       1.92414484       0.32142736
H        7.28398520       0.00659471       0.11101360
H        5.93346205       2.17551274       1.90138543
H        7.74507224       1.78130885       1.71850420
