13
Properties=species:S:1:pos:R:3 -1327.9160663737648=T 9.052395=T 9.64154=T -9.1061=T -7.0957=T -10.133=T 0.7863=T -0.1702=T 0.504=T 9.73486=T 0.11773=T 4.3953904902=T 13.267493888=T 0.236320206=T pbc="F F F"
O        1.38177289      -0.02289262       0.99816475
C        2.38611018       0.07120954       0.29514245
N        2.95292963       1.24167194      -0.08523951
C        2.63582808       2.62398617       0.30221774
C        3.92238460       3.07737997      -0.44789617
C        4.20248985       1.58370164      -0.78915052
H        2.93771815      -0.80932936      -0.11496676
H        2.63454144       2.77656613       1.39186606
H        1.68248939       2.98581562      -0.10999003
H        3.73805492       3.71145380      -1.32219461
H        4.68061397       3.54749647       0.18781182
H        4.19280246       1.33448498      -1.86117917
H        5.10557443       1.15876572      -0.32441606
