11
Properties=species:S:1:pos:R:3 -1270.0880946215673=T 11.803706=T 11.7591=T -9.3846=T -7.5599=T -9.62=T 0.1277=T -1.3316=T -0.335=T 9.11646=T 0.94006=T 4.3849012746=T 6.5039088048=T 0.58036741=T pbc="F F F"
Cl       1.00994640      -0.04574563       0.16970377
C        2.75762684      -0.02299678       0.03061070
C        3.44353261       1.18813604      -0.05306885
C        4.83392375       1.13701298      -0.16266301
C        5.46407838      -0.11002279      -0.18293233
N        4.80183519      -1.27618631      -0.10227053
C        3.46712783      -1.22912210       0.00308844
H        2.90259010       2.13384404      -0.03343853
H        5.41915441       2.05511106      -0.23137820
H        6.55203645      -0.17987951      -0.26802358
H        2.93283803      -2.18060101       0.06853211
