17
Properties=species:S:1:pos:R:3 -1649.790107278506=T 12.162859=T 12.99992=T -8.6468=T -6.6787=T -10.291=T 1.3375=T -0.4801=T 0.684=T 9.69437=T -0.11022=T 4.7457625276=T 6.9284988618=T 0.590993143=T pbc="F F F"
C        2.40281443      -1.04799226      -0.10111458
C        2.04090476       0.43952921      -0.04457569
C        3.26281877       1.32547497      -0.09317437
C        3.85544234       1.82202392      -1.35563024
N        3.04020380       2.74302738      -0.51043740
N        3.92802108       3.60425481       0.24045230
C        3.34933470       4.69522671       0.56957709
H        1.50122399      -1.67469164      -0.05624708
H        3.05089382      -1.33497979       0.74064644
H        2.93787328      -1.29208630      -1.03087930
H        1.47996497       0.65637697       0.88007627
H        1.37666677       0.70442494      -0.88200671
H        3.97059485       1.21575668       0.73526629
H        3.38823527       1.58691578      -2.31437139
H        4.92877638       2.01875722      -1.37354358
H        3.93092547       5.41798583       1.14819776
H        2.30932534       4.92182557       0.29478420
