16
Properties=species:S:1:pos:R:3 -1680.9170584968547=T 11.903436=T 13.10374=T -9.6988=T -7.6119=T -9.519=T 1.141=T -0.3607=T 1.032=T 8.89061=T -0.41385=T 5.3781283234=T 6.3944663626=T 0.447308341=T pbc="F F F"
C        0.67529578      -0.09688265      -0.05984025
C        2.11864225      -0.50585655       0.07444974
C        2.48755537      -1.78650120       0.22930210
C        3.15142215       0.59636332       0.00707751
C        3.08426772       1.55482206       1.22344860
C        4.09204365       2.60740239       1.15452057
N        4.90714781       3.43894798       1.08219021
H        0.35946766       0.57017330       0.75833750
H        0.00941936      -0.96894684      -0.05355120
H        0.51112545       0.45743771      -0.99815650
H        1.75054823      -2.59087460       0.26807926
H        3.53832134      -2.07053215       0.31432511
H        3.00510251       1.19186483      -0.90941811
H        4.16017242       0.16377978      -0.04572788
H        3.23340668       0.98849494       2.15613143
H        2.09540162       2.03335768       1.29220191
