16
Properties=species:S:1:pos:R:3 -1648.948155051789=T 12.940213=T 13.42716=T -8.7735=T -6.78=T -9.055=T 1.1386=T -0.4997=T 0.979=T 8.67913=T -0.50076=T 6.167435598=T 0.712430462=T pbc="F F F"
C        1.76096224      -0.25740363      -1.29903211
C        2.45086195      -0.02077432      -0.17495665
C        3.52095500       0.98904260      -0.00182117
N        3.86838890       1.97762374      -1.02678377
C        3.15741253       2.44754469       0.19257809
C        3.91097880       3.31286340       1.11741284
C        3.34900592       4.22912085       1.91743800
H        0.97266402      -1.00951280      -1.32904300
H        1.95633439       0.28010315      -2.23028347
H        2.23535234      -0.61550952       0.71929469
H        4.38880202       0.63850738       0.56821106
H        3.19618402       1.92579463      -1.80013441
H        2.08800583       2.66393975       0.09708313
H        4.99544230       3.16260402       1.12456236
H        2.27009096       4.40167958       1.91646329
H        3.94799878       4.83581647       2.59648113
