13
Properties=species:S:1:pos:R:3 -1374.338744070502=T 15.707664=T 13.4131=T -7.9068=T -6.0995=T -8.175=T -0.2273=T -1.6973=T -0.665=T 7.70986=T 1.16339=T 3.9269341864=T 4.0014497724=T 0.654386237=T pbc="F F F"
N        0.87589258       0.12615982       0.33734951
N        2.22839639       0.03836869       0.34201204
C        2.90816504       1.14356419       0.24624400
C        4.33984179       1.10955902       0.17432348
C        5.11197221       2.22919187       0.08543110
C        6.51990212       2.22375141       0.01847481
C        7.73775477       2.26205886      -0.03774763
H        0.43881427      -0.68874472       0.75973433
H        0.45795839       1.02058319       0.62079745
H        2.40255150       2.12680255       0.21829163
H        4.80783751       0.12244220       0.19655359
H        4.62577957       3.21111328       0.06135466
H        8.80676385       2.28125964      -0.08984896
