14
Properties=species:S:1:pos:R:3 -1502.2262367987562=T 10.686811=T 11.21223=T -7.775=T -5.8102=T -8.058=T 0.7944=T -0.1832=T 0.606=T 7.48904=T -0.09298=T 4.4484564982=T 6.1154606668=T 0.424582993=T pbc="F F F"
C        0.92364517       0.03705506       0.02950826
C        2.41896106       0.01437983       0.01331041
C        3.28216617       1.07547141      -0.03217038
O        4.58396947       0.66145431      -0.01663671
C        4.55392164      -0.71785571       0.02984552
C        3.25606727      -1.16207565       0.05397531
N        2.77565948      -2.47683904       0.19715005
H        0.54315793       1.06624643      -0.00351448
H        0.52613392      -0.44137442       0.93827342
H        0.49614447      -0.49748462      -0.83471410
H        3.12677678       2.14860737      -0.07367393
H        5.51696433      -1.21451053       0.05462953
H        1.92485932      -2.64246078      -0.34000718
H        3.46918299      -3.18184365      -0.04667572
