15
Properties=species:S:1:pos:R:3 -1606.2239044667429=T 11.710642=T 12.29756=T -8.4338=T -6.3477=T -9.112=T 1.022=T -0.4809=T 1.145=T 8.776=T -0.50567=T 6.1345297136=T 0.670141913=T pbc="F F F"
C        1.02019445       0.01485730       0.00522540
C        2.35513363      -0.02467459       0.02945166
C        3.28093568       1.16593332       0.08900722
O        4.56067652       0.70633920      -0.39897046
C        4.57159052      -0.67075673      -0.50849324
C        5.64208162      -1.32877844      -0.97207243
C        3.24950055      -1.23886720      -0.03808503
H        0.42433755      -0.89778749      -0.04239872
H        0.47680821       0.96079174       0.04022810
H        3.41173233       1.53394849       1.12265542
H        2.95046779       2.00264246      -0.54342856
H        5.61887939      -2.41306195      -1.05090641
H        6.54373909      -0.79815412      -1.27198328
H        2.86601550      -2.02014831      -0.70709990
H        3.36820718      -1.68766368       0.96397022
