15
Properties=species:S:1:pos:R:3 -1503.6324178783811=T 12.397242=T 12.21552=T -8.5447=T -6.5539=T -8.353=T 0.6742=T -0.9069=T 0.328=T 7.89353=T 0.22218=T 5.0963453412=T 0.815247889=T pbc="F F F"
N        1.64952546      -0.79000801      -0.45068386
C        3.01894891      -0.40900613      -0.06114393
C        3.05390430       1.02174913       0.38150944
C        3.88289349       1.95908821      -0.12207933
C        3.91376078       3.34397343       0.31020944
C        4.73356042       4.28221786      -0.20145201
H        1.61153817      -1.78902538      -0.66370486
H        1.38787445      -0.29559777      -1.30747394
H        3.78614013      -0.56769082      -0.84591375
H        3.29954354      -1.05319784       0.79154684
H        2.33039293       1.29559624       1.15796972
H        4.58867798       1.67427982      -0.91271614
H        3.21210401       3.62247728       1.10454394
H        5.44641990       4.04144574      -0.99388585
H        4.71480553       5.31239825       0.15400430
