15
Properties=species:S:1:pos:R:3 -1538.205879473049=T 10.776071=T 11.46388=T -8.1772=T -6.1802=T -8.866=T 1.4897=T -0.026=T 0.752=T 8.42464=T -0.15559=T 5.0224496852=T 10.5652066194=T 0.138210915=T pbc="F F F"
C        0.95358507      -0.00718946       0.56178201
C        2.38838445      -0.01047235       0.08987544
C        2.75744056       0.77733686      -1.13093316
N        4.16211928       1.12222554      -1.24935326
N        4.93659036      -0.01601990      -1.47610450
C        4.16259893      -1.05978301      -1.42119365
C        2.73149585      -0.76976287      -1.19073765
H        0.75669543       0.85060181       1.22276232
H        0.71425985      -0.92558836       1.11889061
H        0.25452127       0.05737461      -0.28560827
H        3.14990655      -0.04193772       0.87440483
H        2.02764920       1.42674180      -1.61929568
H        4.40794294       1.86352230      -1.90346722
H        4.59314970      -2.05042900      -1.56218847
H        1.95284056      -1.36406025      -1.67561335
