18
Properties=species:S:1:pos:R:3 -1729.5665387153535=T 11.522056=T 12.96585=T -8.6861=T -6.5423=T -9.96=T 1.0174=T 0.1326=T 3.356=T 9.26677=T -3.05455=T 8.0560275458=T 11.0545793614=T 0.196534272=T pbc="F F F"
C        2.12812241      -0.92361468      -0.54580999
N        1.92760401       0.33299499       0.17881543
C        3.11910559       1.13968567       0.24819428
C        3.39993938       2.09741917      -0.90071473
C        2.95904156       2.61185144       0.45410798
O        3.88893544       3.23708162       1.30065304
C        4.06308324       4.61395074       0.97067191
H        1.19802289      -1.50826325      -0.52686978
H        2.94740943      -1.55474788      -0.14461509
H        2.36417160      -0.69977540      -1.59666344
H        1.59755201       0.13632246       1.12686669
H        4.02034555       0.70800306       0.71099235
H        2.67626729       2.13267735      -1.71569145
H        4.44490889       2.24257389      -1.17617963
H        1.93233807       2.99180726       0.52966091
H        4.80747555       5.01672526       1.66883836
H        3.11886053       5.17803708       1.08371103
H        4.42549657       4.73775122      -0.06550786
