19
Properties=species:S:1:pos:R:3 -1942.5633430928308=T 11.912075=T 13.19918=T -9.6647=T -7.5189=T -10.838=T 0.9667=T 0.0763=T 3.062=T 10.44961=T -2.72633=T 8.904984485=T 11.0571706688=T 0.198466881=T pbc="F F F"
C        1.26630754       0.33414635       0.64517407
C        2.48814294      -0.11188390      -0.16008240
C        2.32567819      -1.49844376      -0.82962260
C        3.29794400      -1.49906293      -2.02870924
C        3.37547747      -0.04042600      -2.46327970
C        2.07118324       0.71416460      -2.59564029
C        2.87254174       0.81216352      -1.31475476
H        1.42976325       1.31770315       1.11044736
H        1.03482228      -0.38109438       1.44896850
H        0.37952554       0.41291442      -0.00330565
H        3.35939437      -0.15442234       0.51981064
H        1.28783471      -1.61645454      -1.18051999
H        2.51452301      -2.32376480      -0.12856535
H        4.30001305      -1.83264015      -1.71174909
H        2.96852945      -2.17559223      -2.83382642
H        4.22118449       0.28187765      -3.07335798
H        2.07055761       1.59086399      -3.24399499
H        1.13198396       0.15653938      -2.60102080
H        3.34333316       1.76845197      -1.07780132
