17
Properties=species:S:1:pos:R:3 -1670.9535440802022=T 11.368277=T 12.49521=T -8.5933=T -6.4599=T -9.105=T 0.9461=T 0.0598=T 1.184=T 8.67239=T -0.645=T 6.0798022932=T 0.334526195=T pbc="F F F"
C        2.58944987      -0.21463096       1.31966885
O        2.36917833       0.23255453      -0.02458471
C        2.82151289       1.52164059      -0.25626507
O        4.26128820       1.53028365      -0.24660657
C        4.85925817       2.74250843      -0.45317620
C        4.28154000       3.93158908      -0.69933582
C        5.08030631       5.18393613      -0.91335412
H        2.08463590      -1.18336140       1.41016920
H        2.15288661       0.49600118       2.04390725
H        3.66270736      -0.33599946       1.53001884
H        2.46474310       2.23295369       0.51877750
H        2.45788169       1.81966308      -1.25368036
H        5.94590512       2.63404948      -0.39847881
H        3.19475910       4.02138118      -0.75695259
H        6.15961385       4.98870840      -0.83613607
H        4.82681883       5.95917256      -0.17238917
H        4.88960467       5.62012982      -1.90723216
