12
Properties=species:S:1:pos:R:3 -1333.0006002705904=T 13.378035=T 13.06454=T -8.7033=T -6.9133=T -9.179=T 0.0959=T -1.4418=T -0.659=T 8.51254=T 1.33034=T 4.6532193772=T 5.8405713062=T 0.424333075=T pbc="F F F"
C        2.79535256      -1.18654445       0.37088653
C        2.27764405       0.02783093       0.12244504
C        3.03047186       1.27775856       0.02135155
N        2.34210825       2.39970167      -0.23354066
S        3.40085726       3.69091981      -0.30471786
C        4.81294143       2.75217256       0.00898585
C        4.44719833       1.43937893       0.16661252
H        2.15302014      -2.06490806       0.42804529
H        3.86372065      -1.34860023       0.52424778
H        1.20085040       0.14265458      -0.02486621
H        5.80507150       3.19358658       0.06043011
H        5.14728359       0.63272912       0.37447006
