16
Properties=species:S:1:pos:R:3 -1531.3323692352992=T 10.414657=T 10.95508=T -8.6541=T -6.6898=T -9.521=T 0.7512=T -0.1934=T 1.026=T 8.71213=T -0.49412=T 5.003021079=T 8.6792183776=T 0.243453935=T pbc="F F F"
C        1.00185543      -0.52187752       0.48227452
C        2.26519614      -0.27843404      -0.34394611
C        2.86456420      -1.58721286      -0.87951474
N        1.96661629       0.67178903      -1.41478949
C        2.91256943       1.42843382      -2.07134834
N        4.16716989       1.58985155      -1.82887115
H        0.61351399       0.41799150       0.89754107
H        1.21169887      -1.20929714       1.31288872
H        0.21352763      -0.98191848      -0.13529133
H        3.00975632       0.21072301       0.30859972
H        2.12164155      -2.13310677      -1.48062723
H        3.18036539      -2.23938745      -0.05227203
H        3.73788478      -1.38893244      -1.51528182
H        1.06062115       0.58378791      -1.86651550
H        2.47769913       1.98751057      -2.91352472
H        4.47807981       1.02307932      -1.02739156
