17
Properties=species:S:1:pos:R:3 -1698.9979931883656=T 12.474613=T 12.91559=T -8.7574=T -6.8295=T -9.058=T 0.7817=T -0.7411=T 0.18=T 8.45005=T 0.30357=T 4.6105805918=T 5.3370641602=T 0.461514381=T pbc="F F F"
C        0.87119919      -0.07070551      -0.27866086
C        2.35917285       0.07062528      -0.34730308
C        3.11464254       1.13031298       0.01979408
C        2.55626197       2.41819745       0.56925962
C        4.60048592       1.08991531      -0.16362899
N        5.17859880      -0.17728610      -0.21780377
N        5.36893151       2.11896132      -0.32125329
H        0.59496419      -0.98463582       0.27173007
H        0.44874616      -0.18446368      -1.29057174
H        0.36947474       0.77890882       0.19976167
H        2.88302278      -0.78289089      -0.78875075
H        1.50248333       2.32091072       0.85282294
H        2.61706235       3.22980145      -0.17395344
H        3.12079177       2.74725085       1.45366854
H        4.79691280      -0.86483123       0.42674544
H        6.19621983      -0.13041605      -0.21235482
H        4.81221927       2.97920508      -0.36012162
