16
Properties=species:S:1:pos:R:3 -1637.631920684989=T 13.656102=T 14.39569=T -8.8497=T -6.7531=T -8.603=T 0.613=T -1.0023=T 0.542=T 8.1919=T 0.02862=T 4.0922323216=T 11.3935322882=T 0.680892431=T pbc="F F F"
C        0.96169440      -0.12751409       0.20069509
N        2.41953551      -0.13253935       0.09985710
C        2.96968120       1.19176968      -0.20043723
C        4.46467022       1.15148065      -0.25847638
C        5.18682353       1.59146986      -1.31022343
C        6.60213323       1.57830467      -1.38150769
C        7.81530895       1.58724689      -1.48729227
H        0.60218053      -1.15393101       0.35515997
H        0.44413861       0.29404091      -0.68687174
H        0.65824544       0.46660628       1.07664772
H        2.71078096      -0.78246078      -0.63444053
H        2.66228014       1.86210446       0.62470687
H        2.56510442       1.64022228      -1.13519666
H        4.97546355       0.72848929       0.61138422
H        4.66285626       1.99956087      -2.18272956
H        8.88300305       1.58785939      -1.56603550
