17
Properties=species:S:1:pos:R:3 -1636.473925756655=T 10.987856=T 11.6153=T -8.841=T -6.8774=T -9.669=T 0.6097=T -0.3907=T 0.936=T 8.90424=T -0.41778=T 4.9697556352=T 8.61764693=T 0.250893617=T pbc="F F F"
C        2.99866735      -0.99359848      -1.51020180
C        2.51990051      -0.34462148      -0.21386480
O        2.58513707      -1.25746049       0.89101995
C        3.25534408       0.96943450       0.11116452
N        4.69499085       0.81680792       0.29659117
C        5.30078721       0.66823003       1.53477411
N        4.78835988       0.38681881       2.67856052
H        2.84248033      -0.32672596      -2.37178139
H        2.44646687      -1.92520870      -1.68906061
H        4.07207100      -1.23219697      -1.45226841
H        1.44797898      -0.09902292      -0.30288547
H        3.51858855      -1.52208716       0.99818130
H        2.82040120       1.39851275       1.02900916
H        3.08415765       1.69232830      -0.70177607
H        5.29450349       1.16319076      -0.44530403
H        6.39093018       0.80408909       1.47240034
H        3.76839480       0.25158001       2.61902151
