11
Properties=species:S:1:pos:R:3 -1138.5715761571812=T 10.580972=T 10.90256=T -8.8791=T -6.9055=T -9.401=T 0.5537=T -1.2113=T -0.238=T 8.8935=T 0.78312=T 3.6572398392=T 13.0555770168=T 0.731352834=T pbc="F F F"
C        0.94798022      -0.04699415      -0.00000096
C        2.39732950       0.02691496       0.00004395
C        3.61395058       0.10948734       0.00006471
C        5.02661847       0.10366080       0.00009483
N        5.69202168       1.21592070      -0.00011596
O        7.07527779       0.94737451      -0.00003104
H        0.50232223       0.95824130       0.01196698
H        0.57960536      -0.59148437       0.88250138
H        0.57859437      -0.57066967      -0.89461423
H        5.55458086      -0.86050069       0.00030289
H        7.45339894       1.84550928      -0.00021255
