11
Properties=species:S:1:pos:R:3 -1189.7464389822467=T 12.71667=T 12.01498=T -9.2242=T -7.4583=T -8.835=T -0.77=T -2.4046=T -1.449=T 8.15308=T 2.2077=T 3.4328127806=T 9.928240943=T 0.544721586=T pbc="F F F"
C        2.80384283      -1.22740122       0.43631845
C        2.31926177      -0.00210522       0.16927760
C        3.08151024       1.23295207       0.11676517
C        2.56457825       2.49413376      -0.15775868
N        3.47616494       3.50692860      -0.15169486
N        4.68245959       3.16707058       0.10441254
S        4.77558404       1.41675361       0.37866077
H        2.14624523      -2.09574897       0.45223252
H        3.86154889      -1.39856635       0.64508511
H        1.25020523       0.11445780      -0.03300912
H        1.51917899       2.71371533      -0.36867949
