17
Properties=species:S:1:pos:R:3 -1618.809239366318=T 10.600737=T 11.44126=T -9.0368=T -6.8314=T -10.424=T 0.8139=T -0.1762=T 2.747=T 9.93689=T -2.43638=T 8.1854565312=T 13.2731724468=T 0.073297045=T pbc="F F F"
N        0.96396625      -0.05237564       0.13331579
C        2.40975480      -0.07211699      -0.12771911
C        2.59777109      -0.06684132      -1.64142719
O        1.88175040       1.00698606      -2.23952013
C        3.13775841       1.02896749       0.69245274
N        3.52623866      -0.00742706       1.68994808
C        3.26696736      -1.08406011       0.69599560
H        0.79008495       0.13113565       1.12433829
H        0.55848971      -0.97101910      -0.07210569
H        2.26648615      -1.04735950      -2.04895877
H        3.66133841       0.05415062      -1.89733206
H        1.06305716       1.06981432      -1.69967098
H        2.51206748       1.84129449       1.09497841
H        3.97469429       1.46982548       0.12290930
H        4.49185957       0.05139825       2.01857406
H        4.15852109      -1.42059497       0.13313500
H        2.74334424      -1.96503766       1.10202665
