11
Properties=species:S:1:pos:R:3 -1110.1405633751208=T 10.443954=T 12.58798=T -10.6728=T -8.518=T -10.914=T 0.7882=T -1.0223=T -0.965=T 10.58932=T 1.5369=T 4.2265091596=T 10.3786944796=T 0.661419822=T pbc="F F F"
C        0.94768399       0.00203344      -0.01338096
C        2.39490876      -0.00813302       0.02208733
C        3.61145592      -0.02168177       0.06036743
S        5.31437860       0.02294659       0.00309531
O        5.70028029      -0.83632613       1.35419157
O        5.75993751      -0.78950090      -1.11383243
O        5.74975088       1.40012598       0.21544285
H        0.56488313       1.03239861       0.00584174
H        0.53589687      -0.53429489       0.85363798
H        0.57863578      -0.48751861      -0.92594921
H        5.84989825      -0.17237930       2.05925838
