12
Properties=species:S:1:pos:R:3 -1354.979719429744=T 10.750112=T 11.13467=T -10.1743=T -8.1148=T -10.182=T -1.0068=T -2.7108=T -1.443=T 9.70434=T 2.0559=T 3.362996264=T 4.91542497=T 0.450294112=T pbc="F F F"
C        0.98360307      -0.26481429       0.16542919
C        2.45382563      -0.03333168       0.15374989
C        3.12237161       1.14258282      -0.00310703
C        2.45379092       2.45960876      -0.19612321
O        3.05194504       3.51182847      -0.33310214
C        4.55548669       1.14366514       0.01574746
N        5.72349999       1.13464832       0.03067171
H        0.72041159      -0.98953013      -0.62135613
H        0.37719298       0.63473170       0.02591745
H        0.69385930      -0.73793465       1.11737333
H        3.06759346      -0.92933095       0.28923156
H        1.34011970       2.42354649      -0.20727208
