11
Properties=species:S:1:pos:R:3 -1211.227034448173=T 8.51179=T 9.00331=T -9.1309=T -6.9681=T -8.667=T 1.5564=T -0.1505=T 0.315=T 8.26981=T 0.30737=T 4.5380983762=T 12.7687478044=T 0.291851034=T pbc="F F F"
C        1.00399314      -0.00854463      -0.00475924
C        2.48533511       0.08533638      -0.00572104
N        3.23842607       1.15084153      -0.00704828
C        4.54364894       0.66356328      -0.00869783
C        4.51687640      -0.69544783      -0.00801458
O        3.19727086      -1.09397497      -0.00604655
H        0.58716092       1.00347127       0.00593511
H        0.64289053      -0.55578911       0.87769821
H        0.64050496      -0.53727198      -0.89760033
H        5.40403081       1.32567279      -0.01003174
H        5.26162227      -1.48235673      -0.00831372
