18
Properties=species:S:1:pos:R:3 -1743.3895254279341=T 11.108322=T 12.32453=T -9.5444=T -7.2875=T -10.925=T 0.8074=T -0.137=T 2.7=T 10.34968=T -2.37975=T 8.6943074738=T 11.1032438664=T 0.117759737=T pbc="F F F"
C        1.79577954      -0.04283091       0.54064622
C        2.74332262       0.10176302      -0.65466993
C        2.36023377      -0.84415051      -1.80489669
O        3.36171079      -0.91546169      -2.81446319
C        2.77230452       1.54357521      -1.13928956
C        3.93482352       2.44209631      -0.91222978
N        3.71805509       1.84606984      -2.25133762
H        2.06855001       0.64539285       1.35378742
H        1.82234758      -1.06623624       0.94073857
H        0.75581392       0.17707651       0.25133811
H        3.76559124      -0.17655698      -0.34297727
H        1.38373466      -0.52391429      -2.22915033
H        2.22172194      -1.86593364      -1.41400761
H        3.73040968      -0.00538939      -2.88937986
H        1.78946345       2.02605496      -1.19837769
H        4.80944511       2.05720605      -0.38263098
H        3.75279495       3.51194799      -0.79076452
H        3.30796761       2.54228091      -2.88061529
