16
Properties=species:S:1:pos:R:3 -1595.0422208313462=T 13.187478=T 13.22318=T -8.5693=T -6.6481=T -9.135=T 0.5098=T -1.1011=T -0.369=T 8.55359=T 0.93697=T 5.0376875646=T 0.624728289=T pbc="F F F"
C        1.87199542      -0.54193908      -1.29051827
C        2.68218302      -0.14042081      -0.04669958
C        3.04403200       1.31213351      -0.03639984
C        4.30190149       1.80038351      -0.01052806
C        4.60335298       3.21304634      -0.01656450
N        5.83434550       3.60723118       0.00345978
O        5.90287391       5.01877994      -0.01130158
H        1.58565251      -1.60227688      -1.24678532
H        2.45625109      -0.38135232      -2.20778151
H        0.94958646       0.05224594      -1.37274759
H        3.59639379      -0.75073933       0.02318831
H        2.08222457      -0.36753773       0.85309758
H        2.20660583       2.02111244      -0.06816829
H        5.15990235       1.12114850       0.01611619
H        3.78164185       3.94336505      -0.04133473
H        6.86469724       5.17348973       0.00468742
