14
Properties=species:S:1:pos:R:3 -1479.4741392047893=T 11.960906=T 12.80591=T -8.5648=T -6.552=T -8.417=T 0.9703=T -0.6181=T 0.733=T 7.91573=T -0.16186=T 3.8339818822=T 5.871109058=T 0.452133275=T pbc="F F F"
C        0.98291552      -0.04162019      -0.10840976
C        2.43450840       0.00327446      -0.04544380
C        3.65155039       0.06518124       0.00959789
C        5.07766706       0.06098338       0.06507250
C        5.74681911      -1.28999672      -0.05530613
C        5.78034264       1.20418224       0.21682012
H        0.55936202       0.96319036      -0.25457355
H        0.55801667      -0.45245609       0.82036149
H        0.64002368      -0.67617594      -0.93974825
H        5.41081290      -1.96053470       0.74938244
H        6.83911786      -1.19419056      -0.00266814
H        5.47765351      -1.77227791      -1.00668693
H        5.28108091       2.16887745       0.30272105
H        6.87028932       1.18680298       0.25716106
