14
Properties=species:S:1:pos:R:3 -1452.0353919488698=T 10.607665=T 10.8106=T -9.2265=T -7.2307=T -9.783=T -0.0156=T -1.6931=T -0.719=T 9.28835=T 1.36304=T 3.4176988872=T 5.0584676182=T 0.565858306=T pbc="F F F"
C        1.02770980       0.00676553      -0.12619511
C        2.52577809      -0.02242219      -0.02364453
C        3.13074364      -1.39839720      -0.05018009
C        3.22820717       1.13488085       0.08107826
C        4.68024799       1.25977425       0.18556691
O        5.26159891       2.33795045       0.27848013
H        0.63120183       1.02919144      -0.10927242
H        0.57301098      -0.56058571       0.70225836
H        0.69458105      -0.48434664      -1.05508044
H        2.70515296      -2.01056099       0.76088776
H        4.22051720      -1.40813884       0.04808228
H        2.86451696      -1.90614499      -0.99121346
H        2.69193928       2.08847257       0.09089213
H        5.27081414       0.31077146       0.17786022
