13
Properties=species:S:1:pos:R:3 -1386.7692363280835=T 10.061978=T 10.48483=T -8.0481=T -6.05=T -8.222=T 0.6876=T -0.2061=T 0.639=T 7.75593=T 0.000819999999976=T 4.5518236264=T 6.3722728686=T 0.322010398=T pbc="F F F"
C        0.95876940       0.03236716      -0.00858796
N        2.40993811      -0.02674745       0.00030965
C        3.27607207       1.02832014       0.00368403
N        4.54595884       0.64161372       0.00982239
C        4.49448722      -0.72008928       0.01018038
O        5.67119717      -1.41544445       0.01633180
C        3.18754609      -1.18148028       0.00420628
H        0.64965225       1.08400850      -0.00048244
H        0.54288539      -0.46346140       0.87999362
H        0.55373137      -0.44689080      -0.91124522
H        2.92723233       2.05776084       0.00157403
H        5.46492315      -2.36583450       0.01627052
H        2.74817661      -2.17267219       0.00278293
