18
Properties=species:S:1:pos:R:3 -1728.0704273155789=T 12.082349=T 12.97186=T -8.7995=T -6.8242=T -10.051=T 1.108=T -0.0799=T 0.771=T 9.4314=T -0.06084=T 5.5221876568=T 6.3110609804=T 0.226014998=T pbc="F F F"
C        2.32551249      -0.55592234       1.51957650
C        2.56590074      -0.07685244       0.07941075
C        2.73257179       1.41668666      -0.02700532
C        1.58205887       2.32992232       0.28992041
N        3.90020870       1.82936218      -0.39237265
O        3.95078558       3.24734903      -0.44586311
C        5.26075298       3.62856940      -0.87466902
H        2.17801998      -1.64479017       1.54468063
H        1.43368175      -0.08906732       1.96293877
H        3.18668118      -0.31295079       2.15837479
H        1.71282794      -0.37967473      -0.55337957
H        3.46617814      -0.55350418      -0.33351685
H        0.66506110       1.76376256       0.49318148
H        1.40455741       3.02085101      -0.54712432
H        1.81386926       2.95901210       1.16272431
H        5.24875245       4.72531292      -0.91327701
H        5.48495479       3.22150362      -1.87277329
H        6.02593485       3.28780017      -0.15985648
