17
Properties=species:S:1:pos:R:3 -1752.0520350240806=T 11.720447=T 12.5675=T -9.0173=T -6.9614=T -9.436=T 0.7699=T -0.9197=T 0.031=T 8.8485=T 0.6445=T 3.7109381758=T 5.8037474642=T 0.202318716=T pbc="F F F"
C        2.21777324      -1.07651180       2.18283101
C        3.15784158      -1.25593784       1.02234220
C        3.55815506      -2.46297131       0.59088345
C        3.64786032       0.01898574       0.35845212
C        4.65470494       0.73784924       1.26843838
C        6.10540138       0.33500208       1.11291273
O        4.29061228       1.57078637       2.08544262
H        2.64101935      -0.39765414       2.93828398
H        1.98013917      -2.03607490       2.65906596
H        1.27700565      -0.61217812       1.84542212
H        3.21510351      -3.37925005       1.07507737
H        4.22710810      -2.57313797      -0.26513840
H        2.80610470       0.70885671       0.19533560
H        4.11726945      -0.21947596      -0.60697674
H        6.47866948       0.69398532       0.14100402
H        6.20299519      -0.76016626       1.10854875
H        6.70904660       0.76972289       1.91660483
