12
Properties=species:S:1:pos:R:3 -1310.3547754978472=T 10.056914=T 9.70118=T -7.9494=T -5.9033=T -8.244=T 0.8425=T -0.7146=T 0.25=T 7.78042=T 0.26664=T 4.788401313=T 0.533142299=T pbc="F F F"
C        0.97424517      -0.01278845      -0.13447421
C        2.31499078       0.04300216       0.00129783
C        3.26577931      -1.14305296      -0.00335615
O        4.60879940      -0.59221192       0.18900817
C        4.45212106       0.76022413       0.28103008
C        3.17731499       1.19890352       0.18238923
H        0.45102423      -0.96086147      -0.26177500
H        0.36971758       0.89376817      -0.12089443
H        3.26907507      -1.68851655      -0.95855789
H        3.07983867      -1.85138485       0.81704121
H        5.37803465       1.31422200       0.42390148
H        2.85594909       2.23506623       0.23296969
