15
Properties=species:S:1:pos:R:3 -1488.5594396744789=T 9.827483=T 10.88809=T -9.3992=T -7.2575=T -10.999=T 0.9993=T 0.0526=T 3.077=T 10.31238=T -2.6828=T 8.8399042336=T 11.3270757922=T 0.382518462=T pbc="F F F"
C       -0.16249815       0.71970275       0.14756400
C       -0.56601368      -0.66230316      -0.30901515
C        0.89133415      -0.34003665      -0.09920460
C        1.68306707      -0.89214681       1.04586913
C        1.10356342      -1.69755822       2.15579880
N        1.89812477      -2.35960934       1.09784247
H       -0.24143010       1.54884138      -0.55601952
H       -0.36716530       0.98273210       1.18668859
H       -0.90757189      -0.78851031      -1.33640403
H       -1.06393024      -1.31322828       0.40970650
H        1.47871113      -0.21879902      -1.01402583
H        2.53817098      -0.26585579       1.32912043
H        0.04317151      -1.95931923       2.15189171
H        1.53752096      -1.57390222       3.15167817
H        2.84068539      -2.55571718       1.44985934
