15
Properties=species:S:1:pos:R:3 -1558.7864557782323=T 10.762614=T 11.42633=T -9.9791=T -7.9009=T -10.708=T -0.5053=T -2.2172=T -0.814=T 9.66986=T 1.43989=T 3.5534635572=T 5.6596137392=T 0.402705735=T pbc="F F F"
C        1.09229662      -1.06399485       0.30771486
C        2.38752440      -0.33442336      -0.08172999
O        3.00765743      -0.97656725      -1.17432895
C        2.13865338       1.13508321      -0.42306629
O        2.41584313       1.53539406      -1.55476575
C        1.59152192       2.01812445       0.63684377
C        1.31926476       3.31075655       0.40403612
H        0.63804427      -0.64637617       1.21666658
H        1.32816115      -2.11967536       0.49300308
H        0.36457240      -1.01093022      -0.51374280
H        3.07269843      -0.34074922       0.79371061
H        3.07520557      -0.27364162      -1.86211942
H        1.42465711       1.57880921       1.62339867
H        1.49356953       3.73601788      -0.58657103
H        0.92373992       3.96200268       1.18359055
