16
Properties=species:S:1:pos:R:3 -1634.9215229495185=T 12.207184=T 13.6856=T -9.2569=T -7.1672=T -9.602=T 0.88=T -0.132=T 2.157=T 9.22384=T -1.74768=T 4.3550206486=T 10.5697569056=T 0.458648042=T pbc="F F F"
C        3.00691915      -1.20199057      -0.52156111
C        2.45439258       0.04363931       0.17980642
C        3.47286906       1.15593690       0.28136051
N        3.77522617       2.02597541      -0.86948295
C        3.03805512       2.59120670       0.30486118
C        3.70718684       3.58587343       1.09730330
C        4.24496796       4.42102160       1.79615955
H        2.24665997      -1.99322136      -0.57915846
H        3.87375040      -1.60852484       0.01990980
H        3.33455839      -0.97249166      -1.54610152
H        2.11514437      -0.22067154       1.19573418
H        1.56431726       0.41673217      -0.35680544
H        4.36881667       0.91758400       0.86520646
H        3.08794774       1.84897824      -1.61323139
H        1.96230891       2.75646446       0.18181025
H        4.73053939       5.15932776       2.40057922
