15
Properties=species:S:1:pos:R:3 -1566.7433252780265=T 12.811072=T 13.61522=T -8.8912=T -6.7521=T -8.487=T 0.7558=T -0.8232=T 0.636=T 8.07687=T -0.07477=T 4.0789286238=T 11.3799558212=T 0.710636538=T pbc="F F F"
C        2.17237074      -0.84007395      -0.20618582
O        3.41150429      -0.14503838      -0.22774034
C        3.24819800       1.23582245       0.04154457
C        4.55818200       1.95159324       0.02818729
C        5.74854003       1.36102390      -0.19912900
C        6.98630948       2.04957129      -0.20880063
C        8.07017940       2.60512274      -0.22404713
H        2.39110415      -1.89217188      -0.42621372
H        1.47415207      -0.44838905      -0.96965274
H        1.68613542      -0.77112591       0.78514213
H        2.75920745       1.38270423       1.03030568
H        2.56758047       1.69906187      -0.70700321
H        4.50891814       3.02671161       0.22056932
H        5.77359912       0.28442316      -0.38956837
H        9.01875924       3.10104469      -0.23593804
