16
Properties=species:S:1:pos:R:3 -1620.0062430568712=T 11.045827=T 11.54748=T -8.6733=T -6.5169=T -9.18=T 0.9238=T -0.1983=T 1.383=T 8.67009=T -0.75329=T 6.3268443982=T 0.341766422=T pbc="F F F"
O        0.88426994       0.06931966      -0.21054972
C        2.29188636       0.00611410       0.09216955
C        3.07915610       1.24808421      -0.35677898
N        3.32642462       1.20016438      -1.79528879
C        4.22008250       0.10023142      -2.14865290
C        3.74500135      -1.18732631      -1.54180268
C        2.84400178      -1.23526339      -0.55185600
H        0.49273836       0.75131357       0.36297667
H        2.42290051      -0.09114996       1.18998555
H        2.49832425       2.15440521      -0.12539427
H        4.01505019       1.28883909       0.24917277
H        3.71429532       2.08625013      -2.11973565
H        5.27807214       0.26811596      -1.83014436
H        4.24068352      -0.00068380      -3.24660241
H        4.16957005      -2.10934404      -1.94723350
H        2.48864302      -2.19286024      -0.16459529
