16
Properties=species:S:1:pos:R:3 -1597.4547046854807=T 11.162657=T 12.08112=T -9.3492=T -7.1458=T -9.278=T 1.0197=T -0.2777=T 1.225=T 8.67721=T -0.59526=T 6.3379039494=T 0.407963491=T pbc="F F F"
N        2.26864608      -0.45915836       1.45061783
C        2.12606951       0.03160654       0.06738703
C        2.86347379       1.34052088      -0.10989635
C        2.23786840       2.48336784      -0.42633880
C        4.33885860       1.27762072       0.10418137
C        5.29092722       1.48101869      -1.01320304
O        5.09270355       2.49952195      -0.01851093
H        1.85189349      -1.38864842       1.53602438
H        1.75012086       0.15505178       2.08393264
H        1.07979675       0.16981775      -0.26746509
H        2.57640886      -0.72924206      -0.59419317
H        1.15879987       2.50694897      -0.58830784
H        2.79641710       3.41471996      -0.52922328
H        4.65591743       0.62635819       0.92679375
H        4.88762236       1.71504465      -2.00462895
H        6.26863613       0.98686092      -0.98989955
