15
Properties=species:S:1:pos:R:3 -1484.35564744326=T 10.412392=T 11.17839=T -8.8061=T -6.8136=T -9.954=T 1.0459=T -0.1365=T 0.245=T 9.32611=T 0.35488=T 4.2830591742=T 11.9013169512=T 0.224035067=T pbc="F F F"
N        2.10386422      -0.54609045      -1.33342506
N        1.93843803       0.61532454      -0.51993981
C        0.81299281       0.67939121       0.25878916
O       -0.13985522      -0.09361105       0.14901694
C        3.15359573       1.31421431      -0.20060499
C        3.74603230       2.25451382      -1.22373004
C        3.10260162       2.80356425       0.02716956
H        1.97780169      -0.25085276      -2.30954669
H        1.27583402      -1.11867200      -1.10756305
H        0.86009749       1.50438444       0.99820536
H        3.86241826       0.73042654       0.39464180
H        3.19909461       2.38521456      -2.15762054
H        4.83147613       2.27741615      -1.31426034
H        3.73746974       3.20892860       0.81432679
H        2.14244858       3.30496785      -0.08947910
