11
Properties=species:S:1:pos:R:3 -1219.432131610718=T 10.394147=T 9.83295=T -9.3473=T -7.4512=T -9.585=T -0.7938=T -2.4782=T -1.328=T 9.04746=T 1.89664=T 3.967861965=T 4.7649183646=T 0.492971054=T pbc="F F F"
O        0.90027579      -0.11844942       0.00628447
C        2.24615634      -0.06655570      -0.00056592
C        2.92430471       1.11003638      -0.00096034
C        2.46205956       2.48655347       0.00496955
N        3.47408093       3.31486870       0.00198680
N        4.68799951       2.54873518      -0.00649593
C        4.36786426       1.28229755      -0.00822616
H        0.60349080      -1.04620276       0.00532640
H        2.77461704      -1.02537847      -0.00603376
H        1.43239506       2.84020210       0.01136661
H        5.12791600       0.50068296      -0.01428172
