19
Properties=species:S:1:pos:R:3 -1809.908380506164=T 11.789128=T 12.90151=T -9.0251=T -6.881=T -10.413=T 0.8469=T -0.0992=T 2.826=T 10.12602=T -2.47313=T 8.2863687366=T 11.5625995978=T 0.178568066=T pbc="F F F"
C        2.69384381      -1.50421555      -0.42133518
C        2.00955435      -0.18743855      -0.02093104
N        1.06329170      -0.31945434       1.10540573
C        3.02769722       0.91699756       0.28241794
C        3.78242691       0.79863625       1.59083572
C        3.69520355       1.59530739      -0.86372486
N        2.58258028       2.26311205      -0.14461485
H        3.38924897      -1.36391486      -1.26322774
H        1.94409089      -2.25145474      -0.71978151
H        3.26632159      -1.92664771       0.42004232
H        1.42225308       0.18528672      -0.87563396
H        1.47118644      -0.91667775       1.83135142
H        0.22278070      -0.80637850       0.78693431
H        4.52793049       1.60164958       1.68602180
H        4.32094842      -0.15881775       1.66812628
H        3.08851720       0.87379001       2.44152916
H        3.45648786       1.30239455      -1.89055995
H        4.71789457       1.95551235      -0.71880913
H        2.96427196       2.96617328       0.49788355
