16
Properties=species:S:1:pos:R:3 -1539.3722479057003=T 10.46827=T 11.132=T -9.2966=T -7.3431=T -10.566=T 1.231=T -0.2247=T 0.147=T 9.84433=T 0.44561=T 4.2156851818=T 6.0598653444=T 0.164839717=T pbc="F F F"
C        1.52348427      -0.47173333       0.82575579
C        3.00868186      -0.12724819       0.81428896
N        3.37423042       0.88427766      -0.17572038
O        2.99314669       2.20957353       0.17728287
C        1.96077593       2.68425889      -0.70647626
C        4.54963800       0.80652680      -0.89546044
O        5.17814080      -0.22575122      -1.09231191
H        1.33713057      -1.26764373       1.56046034
H        1.19254823      -0.82996455      -0.15889710
H        0.90976990       0.39273706       1.11381288
H        3.61961769      -1.00160507       0.54884781
H        3.33529002       0.22742430       1.80674771
H        1.70969816       3.68519468      -0.33285532
H        1.07203520       2.03690272      -0.67319247
H        2.32527989       2.75683513      -1.74297424
H        4.82790236       1.80079531      -1.30988823
