11
Properties=species:S:1:pos:R:3 -1219.9299781014638=T 10.815587=T 11.02154=T -9.7532=T -7.962=T -10.524=T -0.1847=T -1.9851=T -0.841=T 10.03405=T 1.4023=T 3.855592642=T 5.657667159=T 0.271476191=T pbc="F F F"
N        0.96549930       0.08198545      -0.27410242
C        2.23104103      -0.05279701      -0.13929255
N        3.03109390       1.08137996      -0.04072703
C        4.41376907       1.04159521       0.10702773
O        5.06531873       0.00404023       0.16574594
C        5.02252392       2.35793214       0.18662998
C        5.58232294       3.43274121       0.25821158
H        0.52008322      -0.84043865      -0.33241771
H        2.81207228      -0.98273891      -0.08729420
H        2.55805633       1.98499114      -0.08179011
H        6.08527927       4.37715922       0.32231878
