17
Properties=species:S:1:pos:R:3 -1641.7382108218758=T 11.130934=T 12.27486=T -8.7918=T -6.8369=T -9.744=T 0.8485=T -0.0887=T 1.026=T 8.9777=T -0.4702=T 5.218880705=T 6.1840993164=T 0.154851689=T pbc="F F F"
C        1.71710662      -0.58720632      -0.99006383
C        2.76424233      -0.38441923       0.09830717
N        3.68796796       0.67934646      -0.27131747
C        4.70622364       1.06272967       0.58363081
N        5.19297872       0.45674854       1.60637194
O        5.21184313       2.26014013       0.15814145
C        6.32848539       2.75435456       0.91816018
H        1.03738668      -1.40505327      -0.71704133
H        2.19046267      -0.83705021      -1.94989049
H        1.10756627       0.31849692      -1.12993272
H        3.34022827      -1.31563348       0.22879279
H        2.27010657      -0.17022584       1.06597608
H        3.30075095       1.44316053      -0.82197905
H        4.69237401      -0.41481467       1.79633984
H        6.58920099       3.71212451       0.45423914
H        7.17335191       2.05394199       0.86631769
H        6.05200388       2.89275972       1.97221780
