19
Properties=species:S:1:pos:R:3 -1804.3050524218606=T 13.104108=T 13.80045=T -8.1066=T -6.1359=T -8.876=T 1.3427=T -0.061=T 0.873=T 8.34832=T -0.25561=T 4.9040678524=T 5.3770992396=T 0.196302392=T pbc="F F F"
C        3.38382978      -1.19517270      -1.04768690
C        2.65574582      -0.33854825      -0.01046795
C        2.75585529       1.17567693      -0.28870170
C        4.14656221       1.71517617      -0.15257756
N        4.77368322       2.22516785      -1.15470584
N        6.07731024       2.61326458      -0.98665593
C        6.49501844       3.68352565      -1.88404317
H        3.29317248      -2.26591669      -0.81478590
H        4.45420088      -0.94664011      -1.09267864
H        2.96869357      -1.03249854      -2.05420301
H        3.05701774      -0.54915429       0.99625365
H        1.58998565      -0.61763588       0.02249030
H        2.09380353       1.70693961       0.41803270
H        2.39665829       1.39925050      -1.30515932
H        4.63092820       1.63606547       0.84177845
H        6.34050912       2.78078636      -0.00579891
H        6.28027979       3.37715326      -2.91563460
H        7.57896736       3.82543075      -1.77841751
H        5.98621838       4.64634934      -1.69272817
