13
Properties=species:S:1:pos:R:3 -1361.1706156696375=T 9.412258=T 9.99315=T -8.7095=T -6.6906=T -10.172=T 0.7758=T -0.1977=T 0.462=T 9.66522=T 0.18626=T 4.3397827692=T 11.74395392=T 0.212828943=T pbc="F F F"
O        1.35001438       0.13268771       0.64633984
C        2.45697250      -0.06430374       0.16006548
N        2.89964070      -1.29176713      -0.33194246
N        4.19678170      -1.26721698      -0.94824711
C        4.63144736       0.13002426      -0.81958772
C        3.83474434       1.15607174      -1.55147647
C        3.57251777       0.91537079      -0.06567025
H        2.22193484      -1.92550844      -0.75184500
H        4.80258949      -1.82505731      -0.33416756
H        5.70087893       0.26305370      -0.66306717
H        4.34383655       2.08563825      -1.80382881
H        3.07934497       0.82835263      -2.26797877
H        3.74723646       1.69927452       0.66938599
