15
Properties=species:S:1:pos:R:3 -1578.5816444210507=T 9.883785=T 11.07284=T -10.0897=T -8.0111=T -11.35=T 0.6794=T -0.2703=T 0.182=T 10.36637=T 0.46989=T 4.3763090448=T 11.57347317=T 0.168790304=T pbc="F F F"
C        0.99902941      -0.10441267       0.19741647
C        2.46999813       0.09962079      -0.11068408
C        2.78730698       0.12635383      -1.59360968
C        3.20809507       1.14193004       0.76012047
C        3.94417114      -0.06125468       1.33692343
O        4.79775429      -0.27011815       2.15714112
O        3.28032135      -0.98867563       0.55769330
H        0.82784701      -0.16123207       1.28073409
H        0.63527548      -1.03502316      -0.25997962
H        0.40856269       0.73072871      -0.20646151
H        3.86729752       0.23086123      -1.76322202
H        2.27430519       0.97136401      -2.07524578
H        2.44912188      -0.80110352      -2.07630791
H        2.59462318       1.68129010       1.49270810
H        3.85705067       1.84705117       0.22574361
