19
Properties=species:S:1:pos:R:3 -1811.2662229365073=T 12.051676=T 13.31869=T -8.3584=T -6.2339=T -9.681=T 0.8753=T -0.0628=T 3.048=T 9.42998=T -2.70449=T 7.9217879036=T 9.4240890698=T 0.172583924=T pbc="F F F"
C        3.00360357      -1.16095321      -0.63768247
C        2.40005315       0.07694156       0.03648704
C        3.36533454       1.24014803       0.10950268
C        3.47425840       2.28197751      -1.01865328
N        2.68319132       2.30138117      -2.23019327
C        2.87168598       2.67259576       0.29398736
N        3.49819333       3.67459957       1.13243490
H        2.28676557      -1.99458712      -0.66631612
H        3.89789753      -1.50739826      -0.09764227
H        3.30922218      -0.94234460      -1.67201220
H        2.06195910      -0.18646404       1.05386106
H        1.49215241       0.38379567      -0.51045539
H        4.31952201       1.01433950       0.60008721
H        4.49011721       2.65670902      -1.18723559
H        1.68584318       2.24321599      -2.02099995
H        2.91300461       1.50484563      -2.82997817
H        1.77901622       2.77307011       0.27649850
H        4.49221354       3.75408446       0.90885989
H        3.43876614       3.40119325       2.11728007
