15
Properties=species:S:1:pos:R:3 -1604.7009104734989=T 10.713326=T 11.58556=T -9.0187=T -6.8955=T -8.988=T 1.2386=T -0.2554=T 1.146=T 8.4241=T -0.49121=T 5.843274201=T 11.3369946722=T 0.417656578=T pbc="F F F"
C        0.85144456       0.00358879      -0.05835489
C        2.34060861       0.02812421       0.05070799
C        3.13272729       1.10304305       0.24323286
C        4.56922614       0.71971829       0.17632386
O        4.96596214       0.16466283      -1.12254186
C        4.60877526      -0.74020679      -0.05929818
C        3.17080283      -1.23724027      -0.10706819
H        0.41173731      -0.70998205       0.65763025
H        0.53765371      -0.32678599      -1.06210602
H        0.41518264       0.99399557       0.12541796
H        2.78340712       2.12684934       0.37999766
H        5.35653189       1.27357827       0.69279539
H        5.41650227      -1.38448317       0.29878297
H        2.96824664      -1.95501060       0.70705001
H        2.95143160      -1.75648148      -1.05487981
