17
Properties=species:S:1:pos:R:3 -1589.4002768546973=T 11.965889=T 12.77339=T -8.9672=T -6.7943=T -10.346=T 1.3815=T -0.3165=T 0.542=T 9.95054=T 0.08065=T 5.4456882948=T 12.1196686958=T 0.201753489=T pbc="F F F"
C        0.90912484      -0.20946745      -0.25658450
N        2.31586319      -0.07715577       0.11809536
C        2.85094828       1.25635004      -0.16888960
C        4.26576640       1.36539340       0.30740421
N        5.18863510       1.65521896      -0.53649880
O        6.45039434       1.72541371       0.08802520
C        7.43386505       2.03525755      -0.90615369
H        0.58205507      -1.24448700      -0.08768902
H        0.69061323       0.05874205      -1.31158572
H        0.29737569       0.44161655       0.38698272
H        2.87181543      -0.76694965      -0.39342178
H        2.23396136       1.98334770       0.39085327
H        2.80481974       1.54635822      -1.23882087
H        4.48986742       1.17731904       1.36624093
H        8.38406288       2.10168266      -0.36233040
H        7.21222466       2.99684622      -1.39308210
H        7.49237733       1.24107377      -1.66612519
