10
Properties=species:S:1:pos:R:3 -1148.2320090053402=T 11.355859=T 11.19722=T -9.8383=T -8.0808=T -10.078=T -1.0986=T -2.7789=T -1.892=T 9.40896=T 2.22684=T 3.2307775936=T 10.1738076146=T 0.337494989=T pbc="F F F"
O        2.62104536      -1.18140746       0.08668449
C        2.12027130      -0.06974362      -0.00746203
C        2.87801852       1.18434234       0.01883966
C        2.39566313       2.48148889      -0.08062609
C        3.45713991       3.41458990      -0.01133530
N        4.68615785       2.91879673       0.13125535
S        4.60574829       1.25002341       0.18915923
H        1.01619716       0.06476429      -0.12303456
H        1.34334285       2.73763264      -0.19603348
H        3.34380564       4.49877290      -0.06548727
