13
Properties=species:S:1:pos:R:3 -1368.4933039442549=T 10.894321=T 11.1154=T -8.4156=T -6.5025=T -8.836=T 0.6106=T -0.5893=T -0.054=T 8.2847=T 0.57017=T 4.638130281=T 12.1574596286=T 0.274473508=T pbc="F F F"
C        1.03860699       0.13624674      -0.60491858
O        2.47291033       0.20314809      -0.70182187
C        3.09766830       1.33747771      -0.29933875
N        2.33285906       2.47315190      -0.12833878
C        4.44098980       1.26659276      -0.03728295
C        5.17044064       2.43294011       0.25563024
N        5.73618089       3.43368092       0.50093199
H        0.78985293      -0.91948914      -0.75419175
H        0.55283569       0.72790452      -1.39706535
H        0.69059688       0.47179819       0.38134493
H        1.63013480       2.65755581      -0.84148753
H        2.88705979       3.29868297       0.09923756
H        4.93686391       0.29883941      -0.04339916
