15
Properties=species:S:1:pos:R:3 -1464.8416223929544=T 12.348004=T 11.93973=T -7.7005=T -5.8713=T -8.695=T 1.5285=T -0.0704=T 0.391=T 7.91357=T 0.19059=T 4.975248215=T 0.439700313=T pbc="F F F"
C        1.31376176       0.16932360       0.31905599
N        2.75266714       0.06206763       0.11435372
C        3.37097742      -1.18032238       0.20758568
C        2.76388568      -2.35253595       0.47598863
C        3.50113087       1.18395329      -0.18598081
N        2.97211166       2.35522812      -0.30079232
O        3.99778562       3.30373950      -0.60468641
H        1.02826234       1.22179734       0.23930233
H        1.04694718      -0.21319313       1.31578841
H        0.77657461      -0.41729740      -0.44200756
H        4.44931687      -1.13967806       0.03914332
H        1.69304016      -2.44415666       0.64758423
H        3.36345879      -3.25808290       0.52540336
H        4.57526810       1.01311996      -0.31934883
H        3.48389180       4.12738705      -0.67010973
