19
Properties=species:S:1:pos:R:3 -1873.0131678502435=T 12.519601=T 13.69062=T -8.1232=T -6.1885=T -8.651=T 0.8964=T 0.0111=T 1.391=T 8.11968=T -0.7645=T 5.8854418396=T 0.332051851=T pbc="F F F"
C        2.48559182      -1.08863224      -1.45962580
C        3.08336224      -0.59252839      -0.13322038
C        3.36132180       0.88564052      -0.13491501
C        4.56601101       1.48173513      -0.01629580
C        5.89547702       0.81067718       0.16032936
O        4.76354904       2.84923444      -0.03528082
C        3.61623474       3.67878143      -0.19289583
H        2.24310268      -2.16073848      -1.41095185
H        3.18886208      -0.93133859      -2.29034266
H        1.55944964      -0.54594272      -1.70243757
H        3.99442936      -1.16531833       0.09442558
H        2.37263971      -0.82467452       0.68029173
H        2.47845492       1.51643152      -0.26395196
H        5.81049959      -0.28023679       0.15612339
H        6.35462004       1.12304705       1.11038766
H        6.58024902       1.11310896      -0.64607798
H        3.98755472       4.71010555      -0.18203800
H        2.90030126       3.53607493       0.63424652
H        3.10568932       3.48136335      -1.15071060
