13
Properties=species:S:1:pos:R:3 -1401.162578967205=T 9.995864=T 10.54376=T -8.008=T -5.8734=T -9.06=T 1.4384=T -0.2939=T 1.026=T 9.34332=T -0.65037=T 5.687733764=T 6.8489370456=T 0.469680802=T pbc="F F F"
C        1.67105486      -0.38457735      -1.24177438
C        2.11755592       0.22849932      -0.14369880
C        3.21481792       1.25339940      -0.13192866
O        3.67430950       1.59235509      -1.45652648
C        3.53733182       2.97460274      -1.55586138
C        3.00104887       3.48266626      -0.44459750
O        2.73577459       2.48732738       0.48580150
H        0.87453997      -1.12679713      -1.18792191
H        2.09387174      -0.15696488      -2.22125289
H        1.70494710       0.00354386       0.84380630
H        4.08540477       0.90189894       0.45958023
H        3.85218508       3.43142142      -2.48598253
H        2.73098787       4.49535496      -0.17030350
