18
Properties=species:S:1:pos:R:3 -1802.97425753438=T 11.368354=T 12.47721=T -8.6284=T -6.5413=T -10.226=T 0.9623=T 0.0664=T 3.075=T 9.59755=T -2.77038=T 8.3066156504=T 10.8375294698=T 0.146313165=T pbc="F F F"
C       -1.72008230       0.80997182       0.52005310
C       -1.14620932      -0.29933994      -0.29419056
C       -0.33305557      -1.41494924       0.33460653
C        1.10341880      -1.39620683      -0.23283886
C        1.71188161       0.03512973      -0.22507934
C        0.76915882       1.06058260       0.41712425
N       -0.52095043       1.05000164      -0.29633077
H       -2.62221580       1.33140719       0.19084543
H       -1.59361762       0.74670836       1.60729004
H       -1.63077761      -0.54545174      -1.24565627
H       -0.30551432      -1.29958861       1.42895428
H       -0.80781183      -2.38801243       0.13905511
H        1.73259313      -2.09056984       0.34434261
H        1.08286189      -1.78308088      -1.26333516
H        2.67422324       0.04995303       0.30799069
H        1.91706873       0.36144471      -1.25599220
H        0.65355535       0.84566832       1.49804367
H        1.19420324       2.07285208       0.33725746
