19
Properties=species:S:1:pos:R:3 -1804.3033208145357=T 12.108718=T 13.2743=T -8.3339=T -6.3092=T -9.804=T 0.9858=T 0.0261=T 3.371=T 9.03079=T -3.18368=T 7.9604343398=T 10.9671072384=T 0.112204969=T pbc="F F F"
N        2.25774169      -0.03463368       3.46707789
C        3.17741263      -0.18517267       2.32856292
C        3.78282178       1.16912957       1.95723612
N        4.72286770       1.05518260       0.85449669
C        5.37623521       2.30067553       0.38128430
C        6.68267051       1.49937838       0.17270282
C        6.05744638       0.46123844       1.13318275
H        1.93674570      -0.95406422       3.77726308
H        1.41826981       0.46975541       3.16865057
H        2.72335712      -0.62539535       1.41919501
H        3.98702898      -0.86433141       2.64300919
H        4.25086682       1.61465766       2.86481838
H        2.97625812       1.85419426       1.64005982
H        5.48834347       3.05629698       1.18670236
H        4.89976146       2.77208859      -0.49251014
H        6.78089688       1.11679285      -0.85089823
H        7.62002980       1.97363704       0.48497894
H        6.15704734      -0.60704760       0.88692613
H        6.38318859       0.62552763       2.18224140
