17
Properties=species:S:1:pos:R:3 -1609.3465976145458=T 11.265915=T 12.14356=T -9.256=T -7.0297=T -10.283=T 1.0258=T -0.0765=T 0.665=T 9.67213=T 0.02364=T 5.5262791948=T 6.455207104=T 0.198544454=T pbc="F F F"
C        1.84241021       0.55698092       1.35009774
C        2.25598629      -0.03657301       0.03439310
C        3.08678219      -1.29295652       0.02568220
C        2.23034992      -2.56664132      -0.08881530
N        3.09435203      -3.75408170      -0.00332147
N        1.84578202       0.58825160      -1.01672573
O        2.27772871      -0.05541288      -2.21672203
H        1.21464010       1.44265646       1.19622538
H        2.72928975       0.84131824       1.93804594
H        1.28278633      -0.17831464       1.94994777
H        3.67956054      -1.35544779       0.95053623
H        3.78364864      -1.25568075      -0.82616058
H        1.62792671      -2.50355004      -1.01451327
H        1.52422869      -2.60758642       0.75650229
H        3.68935244      -3.80342660      -0.83547108
H        2.52045589      -4.60041610      -0.01731365
H        1.92925954       0.55469054      -2.88930753
