18
Properties=species:S:1:pos:R:3 -1737.0503477216446=T 11.222857=T 12.43369=T -8.7203=T -6.5477=T -10.031=T 0.9887=T 0.0947=T 3.064=T 9.31093=T -2.77328=T 8.0689096912=T 10.70123166=T 0.138415374=T pbc="F F F"
C        1.38674496       0.07047244      -0.78935532
N        2.82015679       0.31988468      -0.90915687
C        3.47008905       0.50801737       0.38223436
C        4.94768703       0.81808247       0.22765192
C        5.81448176      -0.07234658      -0.68894381
C        6.16686044       1.23955765      -1.40842750
O        5.17904173       1.98576653      -0.63306313
H        0.93723421       0.01815948      -1.79055772
H        0.83947433       0.83790817      -0.20120850
H        1.22111731      -0.90214455      -0.29982912
H        2.97783068       1.17081772      -1.45631182
H        3.37443199      -0.42143596       0.97265338
H        3.00405034       1.31784973       0.98899846
H        5.39078517       0.98713475       1.22689146
H        5.21123383      -0.75893943      -1.29411140
H        6.64102855      -0.60607569      -0.20525851
H        7.18640170       1.61409294      -1.21441459
H        5.95693012       1.29071828      -2.48799131
