17
Properties=species:S:1:pos:R:3 -1662.045638956444=T 11.054783=T 12.29045=T -9.1049=T -7.0882=T -10.523=T 0.7206=T -0.2502=T 0.71=T 9.64004=T -0.09156=T 4.6852573596=T 12.6774817098=T 0.250488388=T pbc="F F F"
C        1.60200186      -0.50764810      -1.04714730
C        2.51695652      -0.03123296       0.07512508
N        3.56774540       0.84756573      -0.43699986
C        4.73655689       1.01694226       0.30149627
O        5.03303235       0.31733760       1.27046123
N        5.54107298       2.05593597      -0.16139142
C        6.89530525       2.18143168       0.36157322
H        0.82416439      -1.17221148      -0.64598385
H        2.16949552      -1.05822386      -1.81060794
H        1.09189911       0.33437919      -1.54074426
H        3.02601925      -0.87570553       0.55751142
H        1.92691648       0.47298342       0.86277908
H        3.23800939       1.67037792      -0.93842564
H        5.42052063       2.30689550      -1.13970338
H        6.86880207       1.96887271       1.43626656
H        7.25177861       3.20806645       0.20657557
H        7.60411328       1.47688349      -0.10635478
