17
Properties=species:S:1:pos:R:3 -1693.5497350279015=T 13.074309=T 13.09145=T -7.9756=T -6.121=T -8.698=T 1.0615=T -0.2828=T 0.665=T 7.97527=T -0.1166=T 4.8915328678=T 5.2653878536=T 0.472988087=T pbc="F F F"
C        0.65453605       0.20144510       1.11815904
C        1.43613075       0.66593740      -0.12200045
C        2.85005074       1.10912129       0.19944958
N        3.24901025       2.32875163       0.34932442
N        3.80638275       0.11893753       0.38669729
C        3.68466460      -1.25508882       0.25434961
C        4.68898624      -2.13640124       0.41832218
H       -0.36620912      -0.09492176       0.84030356
H        0.58556737       1.01150364       1.85756677
H        1.13522748      -0.65627654       1.60873211
H        0.92324029       1.52250666      -0.58165167
H        1.44852798      -0.12888804      -0.88442993
H        2.46899364       2.97503038       0.19058524
H        4.72334393       0.49625302       0.62857575
H        2.68305400      -1.60258807       0.00003342
H        5.70248021      -1.82105356       0.67115805
H        4.50205284      -3.20060862       0.29821506
