12
Properties=species:S:1:pos:R:3 -1272.9245867018624=T 9.135304=T 9.47368=T -9.6812=T -7.5749=T -10.754=T 0.1481=T -1.8101=T -0.764=T 10.41924=T 1.21364=T 3.6386667364=T 5.9591887124=T 0.126814163=T pbc="F F F"
O        1.83549951      -0.43258965      -1.19381116
C        2.08615675       0.17904369      -0.17687371
C        3.16712703       1.24716726      -0.05930936
C        3.86810164       1.26236674       1.30531622
O        3.75663682       2.64465648       1.80228160
N        2.89736959       3.35336447       0.97413848
C        2.55093658       2.63493647      -0.03286379
H        1.50588057       0.01127229       0.76831540
H        3.84360292       1.14166316      -0.92204764
H        4.93431004       1.01082437       1.25956994
H        3.36334916       0.60882511       2.03636494
H        1.89224940       3.04904961      -0.79406093
