15
Properties=species:S:1:pos:R:3 -1571.1747531417773=T 10.082853=T 11.36225=T -9.2135=T -7.1705=T -10.815=T -0.5318=T -2.468=T -1.588=T 10.44714=T 1.9121=T 2.8363533304=T 11.5042021918=T 0.225914435=T pbc="F F F"
C        1.98847032      -0.85233989       0.11241932
C        3.39423386      -0.26880086       0.06760732
C        3.42517851       1.23948499       0.04772886
O        2.43029885       1.94954134       0.06268669
C        4.83669569       1.90317995       0.00302039
C        4.86131235       3.40720582       0.00225383
O        5.83589260       1.20073971      -0.03009018
H        2.02598066      -1.94931577       0.13044178
H        1.40234495      -0.54063519      -0.76252467
H        1.44623106      -0.51006357       1.00411712
H        3.96481141      -0.61985650      -0.80964923
H        4.01025106      -0.59756845       0.92254940
H        4.30311080       3.79047853      -0.86430494
H        5.89642675       3.76157471      -0.01859583
H        4.33549114       3.79304520       0.88748012
