14
Properties=species:S:1:pos:R:3 -1494.2120257956567=T 9.728775=T 10.55784=T -9.4304=T -7.4286=T -10.556=T 1.2201=T -0.5399=T 0.481=T 9.6765=T 0.21762=T 4.0848055602=T 12.0102510508=T 0.183299411=T pbc="F F F"
O        1.85413667       0.49500001       1.06236184
C        2.74040717       0.08974297       0.34416743
C        2.83268323      -1.31275930      -0.27863894
C        4.16480793      -1.35695288      -1.04093166
C        4.67237417       0.08420665      -1.00113793
C        3.81520656       1.17352104      -1.52178251
N        3.87258231       0.89813539      -0.04975328
H        1.94774975      -1.44943269      -0.91714589
H        2.75699815      -2.06553536       0.51732016
H        4.88837554      -2.00435022      -0.52657332
H        4.06534143      -1.73176371      -2.06965125
H        5.75000499       0.25128188      -0.94355727
H        4.24719840       2.13367423      -1.80900444
H        2.89455371       0.90362200      -2.04806294
