9
Properties=species:S:1:pos:R:3 -967.3406155626868=T 10.82843=T 12.36801=T -10.9071=T -8.9432=T -10.797=T -0.2567=T -2.0709=T -1.266=T 10.35176=T 1.76236=T 4.4135544392=T 8.484919917=T 0.078949616=T pbc="F F F"
O        0.99981319       0.02154825      -0.05058138
S        2.44694604      -0.06116447       0.10922618
O        3.06549909      -0.70285213       1.26344015
C        3.10340080      -0.77563351      -1.31602093
C        3.53436879      -1.35104345      -2.29470748
C        3.09263318       1.53142572      -0.02770620
C        3.50183085       2.67466110      -0.04480195
H        3.91761927      -1.85119293      -3.16283722
H        3.86822879       3.68258142      -0.06718118
