18
Properties=species:S:1:pos:R:3 -1769.2937724941428=T 11.551267=T 12.3015=T -9.5327=T -7.3475=T -9.42=T 0.9106=T 0.0114=T 1.406=T 8.84763=T -0.81527=T 6.6354455522=T 0.442575187=T pbc="F F F"
C        0.92614685      -0.08747591      -0.07327180
C        2.46464746      -0.04186496       0.06457336
C        2.88670296      -0.78024765       1.34255065
C        3.09932399      -0.73212988      -1.16377659
C        2.89525407       1.41146713       0.06330244
C        3.56793246       2.06525290       1.01722083
H        0.59405832       0.43171814      -0.98506776
H        0.43997422       0.39428593       0.78746731
H        0.57480439      -1.12923463      -0.13037503
H        2.44018533      -0.32191930       2.23737712
H        3.97992287      -0.77864075       1.46509790
H        2.55527573      -1.82839716       1.30166353
H        2.80999024      -0.22551358      -2.09696017
H        2.76831524      -1.77991634      -1.23117357
H        4.19697193      -0.72029124      -1.09770101
H        2.60504302       1.96223443      -0.84087685
H        3.88823950       1.58146471       1.94185170
H        3.82287143       3.11967819       0.90175793
