13
Properties=species:S:1:pos:R:3 -1479.7687251962627=T 11.943877=T 11.24671=T -7.6699=T -5.7496=T -7.897=T 0.8736=T -0.6201=T 0.007=T 7.41958=T 0.62287=T 4.4009574616=T 11.0026540246=T 0.66172539=T pbc="F F F"
C        0.85637070       0.00193491      -0.13566337
C        2.20457917       0.00731930       0.02730072
C        3.00488809       1.22402647       0.12382993
C        4.34001425       1.18190168       0.29194488
O        5.07045599       0.01808770       0.38729948
C        4.34862202      -1.15122365       0.29359235
C        3.01385945      -1.20333160       0.12556385
H        0.29983803      -0.93276673      -0.20214991
H        0.29246147       0.93210878      -0.20353893
H        2.52372464       2.20051393       0.05804737
H        4.98671473       2.05393242       0.37060283
H        5.00171254      -2.01836509       0.37347826
H        2.53979893      -2.18337813       0.06115255
