17
Properties=species:S:1:pos:R:3 -1662.9264417313925=T 12.346261=T 13.18189=T -8.612=T -6.5321=T -9.238=T 1.2025=T -0.1038=T 0.812=T 8.80114=T -0.21028=T 4.9469670084=T 11.416134936=T 0.245391872=T pbc="F F F"
N        0.73231817       1.07100482      -0.05115039
N        1.97739253       1.06416199      -0.64426698
C        2.99954454       1.32014752       0.09103287
C        4.38993264       1.24758646      -0.46654280
C        5.14786345       2.55830973      -0.33601222
C        5.86140181       2.90326245       0.95233542
C        6.65679644       2.56048308      -0.28738934
H        0.02216971       1.30082577      -0.74405188
H        0.65313358       1.67047015       0.78100404
H        2.88626409       1.60831561       1.15440212
H        4.32259475       0.93959023      -1.52129308
H        4.95804487       0.46107540       0.06465607
H        4.68614667       3.39809255      -0.86255207
H        5.83888176       2.16544934       1.75674025
H        5.85372542       3.93986703       1.29061907
H        7.18944651       3.36348501      -0.79757906
H        7.16241306       1.59353287      -0.31386202
