13
Properties=species:S:1:pos:R:3 -1379.1739054152413=T 11.282322=T 11.216=T -9.7922=T -7.8273=T -10.397=T -0.3297=T -2.0244=T -0.845=T 9.86532=T 1.42873=T 3.9774956772=T 5.6078495842=T 0.576068644=T pbc="F F F"
C        0.86600531       0.07741220      -0.17799611
C        2.19257086       0.04658717      -0.00184102
C        2.99643309       1.30149966      -0.05074762
O        2.52368490       2.41644811      -0.24003095
N        4.37028023       1.09497647       0.14143224
C        5.31449990       2.12493847       0.13290099
N        6.57974869       2.02160590       0.29537483
H        0.26397585      -0.83026314      -0.14613742
H        0.36557294       1.03068449      -0.35929468
H        2.71207500      -0.89914280       0.18050451
H        4.70096128       0.14299512       0.29216003
H        4.85304618       3.10336203      -0.03660617
H        6.87038578       1.04231635       0.44439139
