18
Properties=species:S:1:pos:R:3 -1739.8038877099498=T 11.181201=T 12.6169=T -9.3661=T -7.195=T -10.969=T 0.8587=T -0.1471=T 3.089=T 10.30297=T -2.81621=T 8.8903293398=T 11.643153302=T 0.23581032=T pbc="F F F"
O        3.94638293       1.33876402       2.35995811
C        3.38619800       2.58295821       1.90485844
C        3.07480831       2.46026681       0.41962001
C        4.29101726       2.16616945      -0.47236835
C        5.30259625       3.28899347      -0.51262980
C        6.07269710       3.60915350      -1.74438680
N        4.93387824       4.46646906      -1.33697894
H        4.11382200       1.41632825       3.31345416
H        4.09385173       3.41490646       2.08571358
H        2.45510583       2.81468467       2.45438628
H        2.60338317       3.39929555       0.08600123
H        2.32871267       1.65994734       0.28965198
H        3.93751957       1.98528666      -1.49953674
H        4.78571481       1.24360087      -0.12949757
H        5.82401270       3.49082625       0.43000840
H        5.89668216       3.02610223      -2.65252461
H        7.09006429       3.99354660      -1.63488667
H        5.29315299       5.32267060      -0.90345267
