19
Properties=species:S:1:pos:R:3 -1872.09187281443=T 12.216012=T 13.32896=T -8.6984=T -6.5864=T -9.359=T 0.9124=T 0.0102=T 1.234=T 8.8792=T -0.73483=T 6.3286917896=T 0.334556213=T pbc="F F F"
C        1.42742193       0.17129698      -1.86872696
C        0.81788925       0.45124659      -0.49363008
C        1.72558201       1.27060473       0.42507955
C        1.99755501       2.68653023      -0.07430524
O        1.04243185       1.32089911       1.70801078
C        1.79250767       1.52506859       2.82557932
C        3.12023828       1.68822287       2.95023279
H        0.76996649      -0.48448910      -2.45601043
H        2.40268187      -0.33217590      -1.78065350
H        1.57642539       1.09208333      -2.45062934
H        0.59745479      -0.49891081       0.01754801
H       -0.14266938       0.98195237      -0.60107406
H        2.67594036       0.72335865       0.56550666
H        1.04829770       3.20508325      -0.27501813
H        2.58707613       2.66751732      -1.00138909
H        2.55729593       3.26564931       0.67132706
H        1.13811780       1.53637712       3.70107135
H        3.81736145       1.69956115       2.11458606
H        3.53068547       1.81677422       3.94968526
