17
Properties=species:S:1:pos:R:3 -1732.977578181924=T 11.903075=T 12.92612=T -9.2204=T -7.0998=T -9.52=T 1.4496=T -0.0809=T 1.205=T 8.97968=T -0.61628=T 6.574543629=T 0.482535166=T pbc="F F F"
O        1.00152991      -0.54184358       0.63724502
C        2.25502027      -0.02427473       0.22310534
C        2.74442301       1.20387038       1.00747479
C        4.18357288       0.63537180       0.88501150
C        3.56891584      -0.77724921       0.63288449
C        4.20614132      -1.70757209      -0.33654364
C        4.46669216      -3.00386490      -0.11612357
H        0.76500965      -1.27680578       0.04435731
H        2.26467307       0.17723996      -0.86516382
H        2.37935723       1.15004777       2.04337896
H        2.52902037       2.19869342       0.59630566
H        4.69717305       1.01074126      -0.01249578
H        4.85564617       0.73827831       1.74590149
H        3.37917962      -1.27804771       1.59630527
H        4.46601409      -1.27461077      -1.31162110
H        4.23359706      -3.47568168       0.84176216
H        4.92576430      -3.63328245      -0.88000409
