19
Properties=species:S:1:pos:R:3 -1808.134504484095=T 12.955163=T 13.68919=T -7.9025=T -5.982=T -8.665=T 0.8294=T -0.1049=T 0.997=T 8.11849=T -0.31784=T 4.8689674158=T 5.3434742364=T 0.187999135=T pbc="F F F"
C        1.49746202      -0.18429881      -1.30707111
C        2.22241390       0.21545483      -0.01208966
C        2.61110052       1.67052139       0.03862749
C        1.53340687       2.72241192       0.11297940
N        3.87652750       1.94804021       0.03523587
N        4.25868896       3.26503852       0.14047511
C        5.62530751       3.50461329      -0.30955206
H        1.22200380      -1.24867184      -1.28810072
H        2.14235238      -0.01471324      -2.18161259
H        0.57245466       0.39352406      -1.45369796
H        3.13975678      -0.37867260       0.10534842
H        1.57061513      -0.01506513       0.85055463
H        0.53444328       2.27372803       0.17845624
H        1.53715210       3.38656715      -0.77018733
H        1.68268212       3.36578393       0.99700971
H        3.59000532       3.93927417      -0.24831005
H        6.30239775       2.85412940       0.25851033
H        5.88437706       4.55071325      -0.09670466
H        5.77687233       3.30803148      -1.38678105
