17
Properties=species:S:1:pos:R:3 -1664.8767524618258=T 10.862296=T 11.59393=T -8.2699=T -6.2235=T -9.832=T 0.8578=T -0.0793=T 3.224=T 9.18752=T -2.93502=T 7.8745244404=T 12.8618240946=T 0.104009625=T pbc="F F F"
C       -0.86782693      -0.02039391      -1.12532170
C       -0.59743755       1.08452803      -0.06257385
C       -1.12754408       0.03273604       0.92859074
N       -0.67672984      -1.05449571      -0.02816296
C        0.78199811      -1.22053787       0.19235575
C        1.61128552       0.05340110      -0.10957194
N        0.83821116       1.27686544       0.21112082
H       -1.91311588      -0.04395739      -1.46668133
H       -0.19883258      -0.11348815      -1.99341478
H       -1.09322401       2.06463284      -0.14074723
H       -0.66012645       0.00505092       1.92369917
H       -2.22449156       0.01583307       1.01600055
H        0.91045758      -1.53932984       1.23821608
H        1.14598178      -2.04274951      -0.44422421
H        1.90632135       0.02993133      -1.17569359
H        2.54428549       0.04557415       0.47582774
H        1.19184788       2.04685946      -0.36010925
