15
Properties=species:S:1:pos:R:3 -1571.174149605272=T 11.616493=T 11.92326=T -7.6376=T -5.75=T -7.701=T 0.8856=T -0.045=T 1.125=T 7.23005=T -0.52031=T 4.630319163=T 6.2792585714=T 0.401042203=T pbc="F F F"
C        2.84561031      -1.07386093       0.64153605
N        2.92336107      -0.18267620      -0.53059453
C        3.34076093       1.13981581      -0.25423880
C        2.67648663       2.29046023       0.15143116
C        3.64302550       3.33370723       0.25090323
C        4.87455138       2.79697838      -0.08312798
N        4.67729679       1.46761855      -0.38932983
H        2.52594357      -2.07225058       0.31115727
H        2.15365569      -0.71634967       1.42629335
H        3.84385943      -1.17192487       1.08940430
H        2.02473582      -0.16513696      -1.01377502
H        1.61314257       2.36275022       0.36231505
H        3.46155812       4.36439026       0.54152103
H        5.86090051       3.24569440      -0.12903436
H        5.37371168       0.81960414      -0.74142093
