12
Properties=species:S:1:pos:R:3 -1292.0316914508276=T 9.045163=T 9.34442=T -10.0076=T -7.9741=T -11.265=T 0.6006=T -1.24=T -0.255=T 10.87652=T 0.85003=T 4.3239249598=T 6.518749929=T 0.259716532=T pbc="F F F"
O        0.99571220      -0.09834775       0.58529624
C        2.14729080      -0.01727492       0.22621023
C        2.83644495       1.23759946      -0.25135041
C        4.30706305       1.24551449       0.16680722
C        4.90107787      -0.07582339      -0.19961766
N        4.28424987      -1.19972030      -0.23087709
O        2.90480124      -1.18136989       0.22378648
H        2.27506440       2.09637269       0.13324298
H        2.75854434       1.25293036      -1.35079050
H        4.40450564       1.39629552       1.25656380
H        4.86076140       2.06275382      -0.31555100
H        5.94938424      -0.15964009      -0.50382030
