18
Properties=species:S:1:pos:R:3 -1745.786222191903=T 11.310772=T 12.86924=T -9.3643=T -7.1585=T -10.756=T 0.8844=T -0.0738=T 2.748=T 10.1133=T -2.46423=T 8.4954463284=T 10.7885921956=T 0.15428847=T pbc="F F F"
C        1.11497735       0.15703742       0.20882061
C        2.58999793      -0.05483894      -0.15723552
N        2.83038978      -0.61296231      -1.50221369
C        3.36052691       1.24804529      -0.04845114
O        3.56290842       1.77011631       1.28289767
C        4.71552489       1.32936173       0.51493000
C        5.70693784       2.38637854       0.11243527
H        1.01780924       0.57579449       1.22139819
H        0.56307600      -0.79379527       0.17343475
H        0.63549179       0.85472987      -0.49682282
H        3.03733751      -0.75635271       0.56731968
H        2.34247296      -0.04014579      -2.19902447
H        2.40416810      -1.54119868      -1.56349060
H        3.07341051       2.01501219      -0.78568808
H        5.14670158       0.39001986       0.88625558
H        5.19364365       3.28450282      -0.25674842
H        6.36640612       2.00501373      -0.68156084
H        6.33686940       2.67484143       0.96672383
