13
Properties=species:S:1:pos:R:3 -1421.866152542845=T 10.24799=T 10.57544=T -9.6527=T -7.6639=T -10.834=T -0.5789=T -2.3506=T -1.303=T 9.83023=T 1.82649=T 3.4004648332=T 5.5459929688=T 0.428473901=T pbc="F F F"
C        3.12247358      -0.90161768      -1.43510312
C        2.84639548      -0.77412587      -0.12705143
C        3.58934274       0.08331152       0.82524643
O        3.16451174       0.27316729       1.96090639
C        4.87255683       0.78445007       0.35246954
C        4.53238083       2.14736625      -0.22897217
O        4.70542088       2.45448430      -1.39215426
H        2.49470136      -1.51617141      -2.08183730
H        3.95896904      -0.38686729      -1.91079840
H        1.98663387      -1.28004191       0.32030528
H        5.42963699       0.20378276      -0.39155052
H        5.48141682       0.94013126       1.25455086
H        4.08767984       2.86490071       0.50289869
