19
Properties=species:S:1:pos:R:3 -1817.1349200067405=T 12.114219=T 13.01112=T -8.248=T -6.1666=T -9.596=T 0.7524=T -0.2154=T 2.991=T 9.22804=T -2.63914=T 7.6000814294=T 12.7022045182=T 0.145741236=T pbc="F F F"
C        1.01702011      -0.02413591      -0.18499886
C        2.52532047       0.01499352      -0.02348326
N        3.03314448      -0.12812074       1.33378202
C        3.41059496      -0.63280073      -1.07852990
C        3.42867655       0.87116310      -0.93987005
C        2.83763569       1.72590517      -2.03938919
N        4.64489358       1.45628195      -0.39775905
H        0.69941024       0.07234214      -1.23198740
H        0.53540431       0.78778172       0.38485517
H        0.61542767      -0.97950204       0.19252095
H        2.83902260      -1.07160255       1.68227747
H        2.54464318       0.51926972       1.96032990
H        2.92596002      -1.06675707      -1.95543634
H        4.29058768      -1.17192081      -0.72191916
H        1.97875705       1.24908473      -2.52650924
H        3.60314449       1.91380126      -2.80697851
H        2.50425450       2.70219918      -1.64908095
H        4.85581175       0.96603007       0.47935501
H        4.44982067       2.42787731      -0.13109861
