20
Properties=species:S:1:pos:R:3 -1882.6433848682227=T 12.112632=T 13.61485=T -9.1742=T -6.9648=T -10.563=T 0.8912=T -0.0642=T 3.059=T 9.9046=T -2.80451=T 8.5506448956=T 11.6420002322=T 0.158703015=T pbc="F F F"
C        1.69745677      -0.77923468      -0.00841199
O        2.99535188      -0.23641575       0.17200790
C        3.02035417       1.16720929      -0.09190009
C        4.44687756       1.66583928       0.08627462
C        4.59864413       3.18082899      -0.10341603
C        6.02037245       3.63761239       0.25493740
N        4.17017043       3.55291937      -1.46693304
H        1.75962781      -1.85279651       0.21219162
H        1.33931296      -0.64352202      -1.04727179
H        0.96161893      -0.31310007       0.67562079
H        2.33919229       1.69463028       0.60940116
H        2.66036015       1.37540242      -1.11644807
H        5.10436551       1.13815303      -0.62762443
H        4.79410925       1.38921048       1.09430198
H        3.89308651       3.68142094       0.58532144
H        6.76151637       3.14578120      -0.39581861
H        6.27416970       3.39424434       1.29855336
H        6.12687005       4.72525457       0.12660084
H        4.82787524       3.15207820      -2.14484201
H        4.23785783       4.56778423      -1.58141505
