15
Properties=species:S:1:pos:R:3 -1547.429755755052=T 10.054946=T 10.77519=T -8.8404=T -6.6869=T -9.148=T 0.9224=T -0.0623=T 1.103=T 8.7028=T -0.54531=T 6.0079152104=T 0.290290574=T pbc="F F F"
C        0.81180980      -1.12925530       0.60130779
C       -0.36973854      -1.46812429      -0.30693465
C       -1.50650985      -0.47277127      -0.23522710
C       -1.40617066       0.84038167       0.03177912
O       -0.25277229       1.57254258       0.18490768
C        0.89847829       1.01966115      -0.48466232
O        1.58297124       0.03699917       0.23263356
H        1.53419761      -1.95908041       0.61201567
H        0.44046387      -0.98090607       1.62977780
H       -0.74526734      -2.44705338       0.03385636
H       -0.02754315      -1.63659991      -1.34360061
H       -2.52047072      -0.85505316      -0.36645293
H       -2.28789512       1.47190736       0.15873016
H        1.60365937       1.85258916      -0.59696797
H        0.55685748       0.65590271      -1.47091257
