18
Properties=species:S:1:pos:R:3 -1795.1794167718713=T 12.561549=T 13.65282=T -9.1634=T -6.9846=T -9.25=T 0.9196=T -0.0461=T 1.342=T 8.75085=T -0.75103=T 6.4357537006=T 0.437700939=T pbc="F F F"
N        0.74013829       0.94886894       0.56241617
C        1.74269887       0.81952878      -0.50623726
C        3.05655255       1.43094145      -0.08270083
C        4.05965547       1.88515215      -1.11268158
C        3.31542960       2.92196639      -0.30625551
C        3.96496829       3.74024908       0.74728363
C        5.28167449       3.86904895       0.95918161
H       -0.13680595       0.50744969       0.27717845
H        0.53017312       1.93864479       0.71790149
H        1.44081166       1.27116473      -1.47581889
H        1.89020828      -0.25769921      -0.69481954
H        3.46818545       1.02930882       0.84695033
H        3.79211151       1.78479705      -2.16602548
H        5.11553628       1.72023579      -0.89820800
H        2.50541505       3.43425286      -0.83779680
H        3.27435998       4.27105368       1.41366056
H        6.02054608       3.38059125       0.31991267
H        5.66287097       4.47187481       1.78395899
