13
Properties=species:S:1:pos:R:3 -1371.026240077198=T 11.479821=T 12.2065=T -9.352=T -7.3812=T -9.74=T 1.2117=T -0.3439=T 0.773=T 9.3791=T -0.18697=T 4.3685351226=T 10.5535767326=T 0.283044505=T pbc="F F F"
N        1.38765039      -0.00949244      -0.29116782
C        2.63855047       0.05930189      -0.02994599
N        3.21476008       1.17419792       0.59179589
C        4.05171257       2.09195717      -0.17924783
C        2.67469935       2.50730929       0.29056432
C        2.50487273       3.43609603       1.37434212
C        2.35915811       4.25282645       2.25998098
H        1.15825602      -0.93703021      -0.66671376
H        3.38203476      -0.73871106      -0.19804730
H        4.16553658       1.90625487      -1.25116105
H        4.92701151       2.48308609       0.34244459
H        1.88766047       2.51880679      -0.47021897
H        2.22661696       4.96094721       3.05213481
