15
Properties=species:S:1:pos:R:3 -1670.474616744205=T 12.913343=T 12.71495=T -7.994=T -6.0699=T -8.007=T -0.3539=T -1.9196=T -0.521=T 7.37757=T 1.04623=T 3.1550593434=T 6.00464198=T 0.583908074=T pbc="F F F"
C        0.93381950       0.05976746      -0.00637000
C        2.42844561       0.04133377      -0.00222645
C        3.28553054       1.10070590       0.00323091
C        4.67633591       0.61589441       0.00563240
C        4.67356112      -0.74284868       0.00163990
C        3.26755278      -1.18464476      -0.00347253
C        2.82844656      -2.46021876      -0.00829989
H        0.55814099       1.09157654      -0.00297279
H        0.51582503      -0.45093869       0.87605569
H        0.52084326      -0.44326753      -0.89555313
H        2.99705547       2.15190761       0.00551829
H        5.55422832       1.26061408       0.00993070
H        5.53085812      -1.41226180       0.00207413
H        1.76332434      -2.69922337      -0.01189081
H        3.52677244      -3.29897617      -0.00882642
