19
Properties=species:S:1:pos:R:3 -1887.9491414946908=T 11.522863=T 12.921=T -9.1692=T -7.0223=T -11.222=T 0.9321=T 0.0334=T 3.014=T 10.5369=T -2.72278=T 9.0530609648=T 11.4697836782=T 0.128655494=T pbc="F F F"
C        2.11286135      -0.34515559      -1.52312265
C        2.45662794       0.14928312      -0.11634755
C        3.21060274       1.47518482      -0.11399263
C        2.42000121       2.69578620      -0.60100893
C        3.10421856       3.84396212       0.14932371
C        3.41049217       3.19346723       1.50091510
O        3.61120569       1.78984130       1.24291409
H        1.62178942      -1.32747157      -1.48591683
H        3.01788012      -0.45051502      -2.14167546
H        1.43198437       0.34486297      -2.04385868
H        3.07911506      -0.59647679       0.40256881
H        1.54099318       0.26940969       0.48666456
H        4.12972804       1.36472172      -0.72834716
H        1.36486275       2.60481249      -0.29167648
H        2.44940195       2.81252797      -1.69270301
H        4.03709695       4.13067387      -0.36048526
H        2.47769117       4.74154253       0.24366263
H        4.31690922       3.59689805       1.97986964
H        2.56513810       3.31488490       2.20394613
