12
Properties=species:S:1:pos:R:3 -1204.7766685991223=T 11.803997=T 11.11418=T -8.0927=T -6.1758=T -8.483=T 0.5483=T -1.078=T -0.027=T 8.0149=T 0.5252=T 3.9763302088=T 11.1624223842=T 0.282289993=T pbc="F F F"
C        0.95450464      -0.12488623       0.03200951
N        2.33608764      -0.00897263      -0.40707407
N        2.84875926       1.23239935      -0.43974180
C        4.14544442       1.36060290      -0.42781521
C        4.76308245       2.62618214      -0.53686516
C        5.37865718       3.67486165      -0.61683420
H        0.58841540      -1.12917033      -0.21748221
H        0.35510042       0.61609080      -0.51040812
H        0.83001137       0.04622975       1.11587632
H        2.96709947      -0.76222853      -0.10476465
H        4.80855194       0.48165492      -0.34035855
H        5.89573581       4.60878621      -0.69537185
