15
Properties=species:S:1:pos:R:3 -1521.3338081738414=T 13.140792=T 13.18862=T -9.0623=T -7.0833=T -9.466=T 0.3398=T -1.3567=T 0.076=T 9.0418=T 0.61023=T 4.4724973836=T 5.622021184=T 0.947674906=T pbc="F F F"
C        1.30198047      -0.29888925       1.09258251
C        2.19349845      -0.19809313       0.10125651
C        2.97749213       1.04805392      -0.22947397
C        4.44943455       0.84096761      -0.03270768
N        5.26704871       0.93036131      -1.02182708
N        6.60419694       0.68961377      -0.60776224
C        7.42465313       0.80872914      -1.58679510
H        0.76470982      -1.22906357       1.28174186
H        1.07414040       0.54863457       1.74420560
H        2.40058845      -1.06815536      -0.53072855
H        2.64262317       1.87169070       0.42383464
H        2.80930492       1.34702488      -1.27571193
H        4.81664027       0.59306793       0.97604637
H        8.48519883       0.64413612      -1.38040161
H        7.09456977       1.06603135      -2.60330934
