17
Properties=species:S:1:pos:R:3 -1638.099408122594=T 11.309724=T 12.04999=T -8.7463=T -6.5937=T -9.222=T 1.0432=T -0.0136=T 1.444=T 8.61071=T -0.82079=T 6.456632943=T 0.416744843=T pbc="F F F"
C        1.40514819      -0.31284968      -0.00158293
N        2.85269297      -0.50044901      -0.06347973
C        3.58675485       0.76779501       0.02884360
C        5.08301597       0.55131776      -0.00809196
C        5.66392876      -0.29190560       1.09386487
C        5.83222255       1.09828510      -0.97785113
H        0.90213789      -1.27923790      -0.14520078
H        1.00452298       0.40405245      -0.75000496
H        1.12840891       0.06115798       0.99660687
H        3.09814155      -0.94906878      -0.95022286
H        3.31245100       1.22703272       0.99734810
H        3.29707135       1.49444718      -0.76085591
H        5.49580997       0.18508561       2.07393112
H        6.74309856      -0.44388255       0.96279114
H        5.16238853      -1.26986704       1.13571266
H        5.38462984       1.70945920      -1.76465678
H        6.91505612       0.96022755      -1.00908131
