13
Properties=species:S:1:pos:R:3 -1331.745427893913=T 9.669795=T 10.13948=T -9.8925=T -7.7929=T -10.169=T -0.0667=T -1.8982=T -0.04=T 9.86663=T 0.55071=T 4.8930578956=T 12.1980154492=T 0.274093093=T pbc="F F F"
C        2.86708084      -1.22217094      -0.32517413
O        2.24423278      -0.01857640       0.12734153
C        3.09192155       1.10904284       0.04250854
C        2.58555964       2.31555081       0.78627786
N        2.62705392       3.39535085       0.08858087
N        3.10138241       3.04652678      -1.26324909
C        3.31632193       1.77737097      -1.29628117
H        2.14591152      -2.02909202      -0.14905490
H        3.79225511      -1.42911149       0.24289246
H        3.10602123      -1.18487288      -1.40160405
H        4.10219655       0.87354239       0.45769892
H        2.26260830       2.31859681       1.82825286
H        3.68570422       1.29867229      -2.20454971
