18
Properties=species:S:1:pos:R:3 -1753.5293353228408=T 11.404512=T 12.53447=T -8.852=T -6.7062=T -10.301=T 1.1486=T -0.8747=T -0.04=T 10.10024=T 0.66745=T 3.6789249906=T 8.201921872=T 0.168229066=T pbc="F F F"
C        0.93184938      -0.04576134       0.11497396
N        2.38561069       0.08416836       0.23129728
C        2.86396729       1.47858610       0.24243601
C        2.43655997       2.18992397       1.52922097
C        4.38834685       1.45226329       0.10887408
C        5.06585733       2.76863531      -0.17454268
O        4.50734559       3.83155557      -0.37789361
H        0.68132460      -1.09781140      -0.07732998
H        0.48739713       0.57214190      -0.69393599
H        0.44523064       0.23618424       1.05948571
H        2.81257181      -0.39154779      -0.56801056
H        2.45525087       2.05498516      -0.61676045
H        2.80940375       1.64131620       2.40758214
H        1.34302157       2.25615995       1.60589724
H        2.82931554       3.21418968       1.54497766
H        4.70069636       0.77937357      -0.71500082
H        4.85506052       1.01314995       1.01014441
H        6.18611009       2.70427729      -0.20478536
