10
Properties=species:S:1:pos:R:3 -1204.6297715467774=T 10.246958=T 10.57505=T -9.0856=T -7.0586=T -8.503=T 0.6782=T -0.9731=T -0.097=T 8.04275=T 0.7865=T 4.1576349366=T 10.8765106682=T 0.377344635=T pbc="F F F"
C        0.94389142      -0.01430423      -0.00188624
C        2.15892958      -0.01014744       0.00077001
C        3.57328167       0.00932525       0.00337058
C        4.40554223       1.09995551       0.00092018
O        5.70045598       0.65348380       0.00496082
C        5.57957759      -0.71354027       0.00976107
N        4.36099967      -1.15443353       0.00907763
H       -0.12672019      -0.02401120      -0.00411821
H        4.24935728       2.17154880      -0.00328591
H        6.50533478      -1.28036671       0.01354008
