16
Properties=species:S:1:pos:R:3 -1655.5283621503088=T 10.634716=T 11.48812=T -8.8797=T -6.9396=T -9.999=T 0.7817=T -0.1546=T 0.692=T 9.45846=T 0.01952=T 4.3885712602=T 12.6569992226=T 0.18548433=T pbc="F F F"
C        1.12092771      -0.03222053       0.22266378
N        2.50751016       0.00994427      -0.18684854
C        3.29611867       1.23473311      -0.14715535
C        4.62098071       0.82592699      -0.82366347
C        4.70888338      -0.68703429      -0.58441773
C        3.26040409      -1.13140326      -0.36932014
O        2.83385036      -2.28236588      -0.33727834
H        0.78573865      -1.07429235       0.14786624
H        0.49964757       0.60144622      -0.42880017
H        1.00095591       0.31070720       1.26449648
H        3.44986645       1.56607608       0.89840745
H        2.78113583       2.04802282      -0.68238860
H        4.56030298       1.03392211      -1.90153776
H        5.47483493       1.38542155      -0.42137977
H        5.16203594      -1.25165184      -1.40824679
H        5.26952666      -0.93576220       0.33102272
