14
Properties=species:S:1:pos:R:3 -1410.7307257276207=T 10.122036=T 10.70406=T -9.4332=T -7.3564=T -10.651=T 0.7292=T -1.234=T -0.549=T 10.22395=T 0.9679=T 3.6564587274=T 6.1819047642=T 0.181628526=T pbc="F F F"
C        1.28907100      -0.17401407      -0.32992883
C        2.57683811       0.45644967       0.10808106
C        3.79453968      -0.42339458       0.28382295
C        4.59454884      -0.46619227      -1.00978767
O        4.80294223      -1.47944683      -1.64890122
N        2.57115689       1.73432442       0.28065198
O        3.85111175       2.22176384       0.66858288
H        0.51627826       0.59023681      -0.47086053
H        0.94263200      -0.90307421       0.41886299
H        1.42955169      -0.72404779      -1.27328544
H        3.50724187      -1.44764304       0.55336121
H        4.43937361       0.01338174       1.06342003
H        4.97569599       0.52641421      -1.35229662
H        3.66118809       3.16527209       0.81329721
