17
Properties=species:S:1:pos:R:3 -1722.9733025399894=T 12.280152=T 14.23957=T -9.424=T -7.2027=T -9.301=T 0.8766=T -0.1097=T 2.258=T 8.84758=T -1.85191=T 4.1346355336=T 10.214462624=T 0.51117068=T pbc="F F F"
C        0.96215752      -0.08553292      -0.00327299
C        2.49944395      -0.02170355      -0.00820697
C        3.02057037       1.34215127       0.00131877
C        3.45103048       2.48042566       0.00784595
C        3.91907025       3.86117585       0.01684873
C        2.75705622       4.87462154       0.00031164
O        3.21446911       6.22750444      -0.03881872
H        0.62201737      -1.13052314      -0.00760262
H        0.54796466       0.41713834      -0.88767186
H        0.55395910       0.40776652       0.88920374
H        2.88822577      -0.55069967      -0.89478045
H        2.89447942      -0.56546272       0.86664188
H        4.56521639       4.05665353      -0.85472362
H        4.53927861       4.03845781       0.91379190
H        2.09499840       4.69363846       0.86532650
H        2.16005721       4.73314032      -0.91149431
H        3.62262518       6.43295826       0.82038244
