14
Properties=species:S:1:pos:R:3 -1428.5148035262423=T 9.62148=T 10.5441=T -9.9111=T -7.7906=T -10.807=T 1.0043=T -0.6165=T 0.184=T 9.91768=T 0.51485=T 4.2077376792=T 12.7660821054=T 0.166059457=T pbc="F F F"
O        0.59914377       0.17946067       0.22964031
C        1.99530587       0.33767915       0.13212340
C        2.34771207       1.24848399      -1.03866733
O        1.46141911       1.71223839      -1.75260948
N        3.70164670       1.41933137      -1.29080207
C        4.64818333       2.08584636      -0.39902320
C        4.27616126       2.67723383      -1.73125242
H        0.24427673       0.69379068      -0.53105481
H        2.49970669      -0.63476008      -0.01772003
H        2.40365625       0.77248973       1.06437194
H        5.61258619       1.58883785      -0.27298013
H        4.24470962       2.56980102       0.49453077
H        3.61107177       3.54385862      -1.74100927
H        4.97881064       2.60701841      -2.56362765
