11
Properties=species:S:1:pos:R:3 -1314.450063669687=T 13.352249=T 14.45123=T -9.3888=T -7.2947=T -8.764=T 0.7645=T -0.9163=T 0.839=T 8.36673=T -0.4361=T 3.2237227902=T 7.6064915056=T 1.333782233=T pbc="F F F"
C        0.94304002      -0.09634394       0.00000000
C        2.15130440      -0.00557194       0.00000000
C        3.61351950       0.08337804       0.00000000
C        4.11846325       1.45289994       0.00000000
C        4.55270244       2.59447409       0.00000000
C        5.03634791       3.86484089       0.00000000
C        5.47470823       5.00387904       0.00000000
H       -0.12516192      -0.17196070       0.00000000
H        4.01161063      -0.45089912      -0.88141673
H        4.01161063      -0.45089912       0.88141673
H        5.85777490       6.00319282       0.00000000
