18
Properties=species:S:1:pos:R:3 -1747.8533769861554=T 11.148782=T 12.3849=T -9.6151=T -7.3515=T -10.805=T 0.7978=T -0.1673=T 2.925=T 10.10492=T -2.5841=T 8.5663415232=T 11.9533290782=T 0.1777587=T pbc="F F F"
N        1.60770501       0.23106441      -0.02782425
C        2.77085461      -0.18383739      -0.84410727
C        2.23522619      -1.15326470      -1.91387103
O        1.12551276      -0.59019441      -2.60422489
C        3.41312093       1.04159061      -1.46007543
C        4.38348189       1.86935424      -0.64710626
C        4.88131052       1.02646609      -1.80006401
H        1.84524975       1.05801919       0.52342359
H        1.34712737      -0.50745294       0.63048954
H        3.54406203      -0.71688111      -0.25195807
H        1.95356172      -2.11024259      -1.42662054
H        3.01967115      -1.37106344      -2.65425229
H        0.64309023      -0.10254786      -1.89936193
H        2.76150047       1.58615049      -2.14774576
H        4.62378849       1.52680787       0.36171023
H        4.37040280       2.95323214      -0.76549360
H        5.20277915       1.53219366      -2.71052478
H        5.45136496       0.12779576      -1.55692326
