15
Properties=species:S:1:pos:R:3 -1524.3407181536488=T 9.948539=T 11.11987=T -11.4446=T -9.0611=T -11.713=T 0.7642=T -0.2518=T 1.512=T 11.20839=T -1.10728=T 5.3715942612=T 10.9827914674=T 0.293528421=T pbc="F F F"
C        0.97719890      -0.13351192      -0.08683358
C        2.49377362      -0.02390536       0.06855565
C        3.01756078       1.43346647       0.01791671
C        2.50810894       2.31812559       1.17143327
C        4.48393720       1.43104411      -0.00521348
N        5.65082708       1.41805149      -0.01088436
H        0.67320305      -1.18904639      -0.11001659
H        0.63550599       0.33023466      -1.02485604
H        0.43736134       0.34338592       0.74303309
H        2.98931682      -0.59480002      -0.73110561
H        2.81511374      -0.47731948       1.02000205
H        2.69324059       1.88161670      -0.93882887
H        2.79666882       1.89211773       2.14253783
H        1.41441400       2.39856412       1.13555801
H        2.92755913       3.32988637       1.10316192
