12
Properties=species:S:1:pos:R:3 -1142.5417907917865=T 7.53341=T 8.02069=T -8.8861=T -6.6077=T -10.298=T 0.8459=T -0.201=T 3.045=T 9.74664=T -2.78904=T 8.2293971696=T 14.3038060718=T 0.120218174=T pbc="F F F"
O        0.91682630       0.00218723       0.09267917
C        2.33661593      -0.02945803       0.02352316
C        3.04533620       1.02332695       0.89079156
N        4.04213633      -0.00420175       1.36023776
C        3.13177431      -1.08289384       0.83687427
H        0.55994050      -0.60168667      -0.58115790
H        2.68566145       0.01204619      -1.02473833
H        2.40717415       1.34378092       1.72983076
H        3.46156097       1.91053826       0.39327945
H        4.86901378       0.04514936       0.75801799
H        3.62301354      -1.90168112       0.29062697
H        2.52714652      -1.50101749       1.65779513
