15
Properties=species:S:1:pos:R:3 -1523.8359485521657=T 10.93801=T 11.58577=T -9.6518=T -7.7955=T -10.612=T 0.8599=T -0.9294=T -0.313=T 10.05111=T 0.82286=T 4.2086799728=T 5.925228947=T 0.323761871=T pbc="F F F"
C        1.10870106       0.00009700       0.40400624
C        2.58505632      -0.20776752       0.07856311
C        3.37528838       1.09227413       0.11013643
O        2.88116091       2.17950510       0.38088904
N        4.74243038       1.01922783      -0.18812644
C        5.50964146      -0.09640937      -0.52199328
N        6.76059561      -0.13571615      -0.79082289
H        0.57830009      -0.96093367       0.38119681
H        0.63677518       0.67652350      -0.31987503
H        0.98301498       0.44557843       1.39886349
H        2.70334798      -0.66678409      -0.91716907
H        3.04548835      -0.91257166       0.79126332
H        5.20902787       1.92780132      -0.14585724
H        4.93971424      -1.03174125      -0.54716226
H        7.19345719       0.79930641      -0.73667224
