14
Properties=species:S:1:pos:R:3 -1382.364299510526=T 11.228989=T 11.41507=T -8.6562=T -6.6789=T -9.73=T 1.2414=T -0.491=T 0.289=T 9.29071=T 0.29178=T 5.449432672=T 6.588802019=T 0.311248719=T pbc="F F F"
C        1.33743758      -0.48861165       0.20329951
O        2.75552588      -0.30586896       0.24826286
N        3.03793988       1.03374920      -0.11437657
C        4.30514998       1.21177720      -0.18405644
O        4.86377508       2.41626437      -0.48438253
C        4.03503616       3.52980929      -0.55700730
C        4.48622769       4.65900356      -1.10324521
H        1.17373784      -1.52660384       0.51791394
H        0.94923385      -0.34060192      -0.81642603
H        0.82862483       0.19894952       0.89631144
H        5.05966304       0.43700093      -0.02129642
H        3.04326219       3.39120796      -0.12615597
H        5.48375534       4.72734588      -1.53660997
H        3.84535065       5.53755845      -1.11622131
