15
Properties=species:S:1:pos:R:3 -1533.6765122254506=T 10.719697=T 11.4649=T -8.7473=T -6.6475=T -9.393=T 0.8377=T -0.2378=T 0.947=T 8.94036=T -0.38919=T 6.2259321928=T 0.387903414=T pbc="F F F"
O        1.23747574      -0.34707917       0.04425742
C        2.63803559      -0.21999157      -0.09031104
C        3.14605457      -0.68062953      -1.41750422
O        2.23422297      -1.15612142      -2.35887199
C        3.19084819       0.82414691      -1.05593761
C        4.47674675       1.50557512      -0.81465046
C        5.47085389       1.08656887      -0.01248546
H        0.89544077       0.45746561       0.47179344
H        3.21361934      -0.43180895       0.81791743
H        4.11739125      -1.17954928      -1.46892249
H        1.35520893      -1.11092364      -1.92944896
H        2.42152709       1.39779375      -1.57911176
H        4.62484299       2.42898068      -1.38369456
H        5.40629324       0.17151036       0.58118389
H        6.39784870       1.65361225       0.06948636
