11
Properties=species:S:1:pos:R:3 -1190.5203545457202=T 12.89218=T 12.38141=T -8.8729=T -7.0203=T -8.748=T -0.2106=T -1.8486=T -1.213=T 8.26868=T 2.11073=T 3.3667034454=T 5.0448787526=T 0.480100497=T pbc="F F F"
C        2.63534951      -1.15615588       0.40149057
C        2.14300442       0.06775878       0.14779505
C        2.94047052       1.28684407       0.08529354
C        2.47057793       2.56692937      -0.17248315
S        3.74986626       3.68508599      -0.14909132
N        4.91608905       2.37613937       0.21552056
N        4.30812076       1.26610323       0.28949345
H        1.97885237      -2.02492335       0.43303658
H        3.69955059      -1.31097619       0.58147235
H        1.07221450       0.19731878      -0.02945274
H        1.44198409       2.85702581      -0.36679489
