15
Properties=species:S:1:pos:R:3 -1603.189650267821=T 11.9451=T 12.38246=T -9.1848=T -7.2129=T -9.76=T -0.2424=T -1.9505=T -0.66=T 9.31354=T 1.31692=T 3.475451566=T 5.54589378=T 0.3968196=T pbc="F F F"
C        0.59908783      -0.09983662      -0.39189194
C        1.71124590      -0.26725448       0.33358277
C        2.84844410       0.71500680       0.41548169
C        4.14367363       0.09984966      -0.13056497
O        5.06092771      -0.22529302       0.61489855
C        4.20324994      -0.08867546      -1.61131162
C        5.30310718      -0.56515272      -2.21213902
H       -0.18662719      -0.85631464      -0.40852965
H        0.43188902       0.80411864      -0.98327138
H        1.84029433      -1.18586948       0.91608086
H        3.04528725       0.99660871       1.46008307
H        2.60291178       1.62111488      -0.16215802
H        3.31680967       0.18536754      -2.18940161
H        6.17465602      -0.83639197      -1.61181976
H        5.35810284      -0.69297784      -3.29343898
