13
Properties=species:S:1:pos:R:3 -1190.568862956633=T 7.596492=T 7.95413=T -9.2172=T -6.9414=T -10.55=T 0.9514=T -0.0514=T 3.278=T 9.91111=T -3.02489=T 8.604566407=T 15.414497457=T 0.237639413=T pbc="F F F"
C        0.99638417       0.01021423       0.00193398
C        2.52526746       0.01360122      -0.02392087
C        3.06712565      -0.76977631      -1.22865314
N        2.99775239       1.40923883       0.05640523
H        0.62449207       0.55017160       0.88287476
H        0.60116044      -1.01517669       0.02187182
H        0.59322722       0.50522691      -0.89722973
H        2.88218904      -0.48298090       0.89620152
H        2.72511370      -0.31477067      -2.17261057
H        2.72664818      -1.81731796      -1.21695861
H        4.16760544      -0.77489402      -1.23484964
H        2.68587833       1.91717674      -0.77845301
H        4.02100590       1.42808703       0.02684827
