20
Properties=species:S:1:pos:R:3 -1939.8918145229509=T 13.034013=T 14.15254=T -9.0993=T -6.8321=T -9.477=T 1.0243=T -0.0092=T 1.335=T 8.95568=T -0.75777=T 6.631453203=T 0.446945581=T pbc="F F F"
C        1.40955908      -0.45205472       0.99971865
C        2.23272777      -0.33177280      -0.28628226
C        2.03304868      -1.55026383      -1.20146048
N        2.50841515      -2.78709027      -0.55654516
C        1.90549670       0.98317541      -1.02881143
C        2.82189350       1.30653664      -2.17294738
C        2.43830386       1.57752662      -3.42632979
H        1.64430262       0.36102560       1.70263610
H        1.60491333      -1.41342156       1.49242248
H        0.33142195      -0.40067757       0.77439895
H        3.30528084      -0.29915834      -0.00958323
H        2.51053360      -1.34537527      -2.17919319
H        0.95214181      -1.66871695      -1.39512065
H        3.53175883      -2.77978700      -0.51750567
H        2.25579398      -3.59476928      -1.12997657
H        1.96436902       1.80416330      -0.29116096
H        0.85957518       0.95824508      -1.38195526
H        3.89259521       1.33379340      -1.93226481
H        1.38314128       1.56385165      -3.71313954
H        3.16006760       1.82631989      -4.20588981
