20
Properties=species:S:1:pos:R:3 -1936.9680688394772=T 12.337675=T 13.77118=T -8.4726=T -6.3611=T -10.045=T 0.8961=T 0.0072=T 2.981=T 9.41411=T -2.68691=T 8.1647508692=T 10.7453210816=T 0.156803066=T pbc="F F F"
C        2.24815578      -0.52094192      -1.57543367
C        2.38619547      -0.02640434      -0.13306215
C        3.23135678       1.23515915      -0.01305154
C        2.65861892       2.57653502      -0.53977417
N        2.99131715       3.27143727       0.75025807
C        3.34557239       1.94297747       1.36651068
C        4.66466586       1.87840234       2.11125345
H        1.62412144      -1.42403078      -1.63432109
H        3.23124335      -0.76427404      -2.00726211
H        1.78550378       0.24485669      -2.21658906
H        2.82948627      -0.82244541       0.49014933
H        1.38570740       0.17490714       0.28884547
H        4.23881267       1.05265623      -0.42792665
H        1.56635729       2.55160630      -0.69760745
H        3.12799648       3.00393009      -1.43795731
H        3.84730362       3.82241980       0.63159053
H        2.52577093       1.63486053       2.04230241
H        5.50483763       2.14312718       1.44919624
H        4.84644197       0.86561213       2.50212131
H        4.66752485       2.57166915       2.96615771
