9
Properties=species:S:1:pos:R:3 -1042.9933559531264=T 10.346299=T 9.87632=T -9.0531=T -7.0835=T -8.757=T -0.4234=T -2.2553=T -1.354=T 8.3638=T 2.23642=T 3.0920744554=T 8.5943623592=T 0.544316549=T pbc="F F F"
C        0.96805560      -0.01383373      -0.00126574
C        2.18446459      -0.01445099       0.00062826
C        3.58776343       0.02284841       0.00252546
C        4.46991318       1.12407487       0.00070066
O        5.71655614       0.88847155       0.00325476
N        5.59535676      -0.99655703       0.00822713
N        4.41115285      -1.09388831       0.00678760
H       -0.10260003      -0.01802060      -0.00292552
H        4.10543750       2.15607584      -0.00264261
