11
Properties=species:S:1:pos:R:3 -1246.84717833951=T 10.458136=T 10.73=T -8.097=T -6.0922=T -8.54=T 0.8216=T -0.8594=T 0.201=T 8.17323=T 0.29126=T 4.1409712182=T 11.133012905=T 0.298351448=T pbc="F F F"
C        0.96300684       0.05828726      -0.04334765
C        2.17844983      -0.00894360      -0.01713297
C        3.57761159      -0.07301813       0.01498480
C        4.42260015      -1.12660142       0.01318256
O        5.73283612      -0.71551349       0.12146274
C        5.66107954       0.70593585      -0.14023381
O        4.32550289       1.11689701       0.15078201
H       -0.10606792       0.10897853      -0.06605341
H        4.22723918      -2.19210334      -0.00068511
H        5.88472942       0.87442479      -1.21361921
H        6.36364235       1.23382655       0.51677006
