19
Properties=species:S:1:pos:R:3 -1931.1340235315495=T 14.502505=T 14.49627=T -8.0763=T -6.147=T -7.97=T 0.7633=T -0.6825=T 0.444=T 7.39058=T 0.17191=T 4.8011966682=T 0.711583606=T pbc="F F F"
C        0.89359470      -0.10330609      -0.24488398
C        2.38757549      -0.09938192      -0.04512370
C        2.96145251      -1.49018255      -0.15917074
C        3.12606153       1.02377309       0.20689597
C        2.52029514       2.40422702       0.31382985
C        4.57795650       0.96600327       0.39283822
C        5.38860221       2.01531536       0.64121320
H        0.42931459       0.88729763      -0.22335689
H        0.40783465      -0.71999276       0.53070298
H        0.63943114      -0.57362800      -1.20979294
H        2.44980978      -2.16869674       0.54380887
H        4.03584956      -1.56127053       0.03297018
H        2.77304586      -1.89602822      -1.16762610
H        1.43511573       2.41518780       0.18058293
H        2.95673071       3.07761950      -0.44078312
H        2.73914591       2.84668865       1.29823985
H        5.05157197      -0.01472492       0.32466344
H        5.02180201       3.03867118       0.72780906
H        6.46176000       1.86885823       0.76598294
