17
Properties=species:S:1:pos:R:3 -1613.9068265388244=T 11.84668=T 12.24594=T -8.4994=T -6.5043=T -9.156=T 1.2998=T -0.3302=T 0.611=T 8.6061=T 0.00988000000001=T 4.7982086056=T 5.3832613438=T 0.280124086=T pbc="F F F"
C        3.41372268       1.65227611       3.27340243
C        3.88577985       1.32569140       1.89547761
N        4.51881360       2.18858921       1.18115295
N        4.85894270       1.87201903      -0.11283942
C        6.02026095       2.60913645      -0.62782779
C        5.78915654       4.11866487      -0.60778675
O        5.80375191       4.67024014       0.70558606
H        2.31633415       1.57833713       3.34390219
H        3.71502759       2.66970809       3.55241998
H        3.82685135       0.94532427       4.01035565
H        3.66493162       0.32003160       1.49223568
H        4.90984456       0.86007801      -0.28897590
H        6.15890767       2.27860223      -1.66884996
H        6.94381989       2.37748985      -0.06281397
H        4.83616167       4.33818695      -1.12869052
H        6.60119503       4.60930523      -1.16678115
H        5.23634824       4.06633942       1.23468291
