16
Properties=species:S:1:pos:R:3 -1574.4407069919134=T 9.935445=T 11.17956=T -9.9639=T -7.6761=T -11.365=T 0.9577=T 0.0353=T 2.995=T 11.0258=T -2.71085=T 9.1827255236=T 11.3232818206=T 0.146427731=T pbc="F F F"
C        1.02911989      -0.05125447      -0.00340958
C        2.53983219      -0.02657351      -0.05317322
C        3.28176205      -0.62387538      -1.22645765
C        3.26310861       0.88134715      -1.02061681
C        4.53023716       1.58588190      -0.60891328
O        5.39610521       1.87866360      -1.71475975
H        0.63608118       0.75157578       0.63869005
H        0.65900735      -1.00982931       0.39118655
H        0.59936166       0.08364727      -1.00717658
H        3.03160397      -0.15378987       0.91639408
H        2.69033395      -1.03651924      -2.04556676
H        4.21357174      -1.15736880      -1.02450364
H        2.63017263       1.44965613      -1.70860420
H        5.05733930       0.97926973       0.15452227
H        4.30396112       2.56289240      -0.15453108
H        5.50200200       1.04996661      -2.21623040
