15
Properties=species:S:1:pos:R:3 -1508.8644773963556=T 10.236637=T 10.71402=T -8.5613=T -6.5405=T -9.364=T 0.7052=T -0.2793=T 0.938=T 8.69127=T -0.33717=T 4.804271521=T 8.1990825926=T 0.223166584=T pbc="F F F"
O        1.12465627      -0.03478919       0.64971862
C        2.45057500       0.05110469       0.11256504
C        2.60329652       1.27783070      -0.79811144
N        3.90960442       1.20109782      -1.44223611
C        4.36896836      -0.03648731      -1.85652029
N        3.89512162      -1.19081660      -1.55052874
C        2.70825557      -1.22489126      -0.69211752
H        1.04242191       0.61529252       1.36850970
H        3.19793282       0.12152422       0.92456668
H        2.54000197       2.20604672      -0.20883207
H        1.77315329       1.27738674      -1.52811465
H        4.23860364       2.01115423      -1.95864677
H        5.26310312       0.01318354      -2.49157426
H        1.81735385      -1.43170036      -1.31176129
H        2.80203165      -2.07665647      -0.00059688
