17
Properties=species:S:1:pos:R:3 -1645.2458165743308=T 11.336578=T 12.15571=T -9.0685=T -6.8655=T -9.067=T 0.9569=T -0.106=T 1.448=T 8.55698=T -0.81588=T 6.3278486848=T 0.385405737=T pbc="F F F"
C        0.87821387       1.04162854      -1.23167482
C        2.36612723       0.86415872      -1.18470664
C        3.16085260       1.35125262      -0.22196035
C        4.65995878       1.20855938      -0.11831059
C        5.31226326       0.47074199      -1.29359929
N        5.22008236       2.55213562       0.14881417
H        0.56748655       1.55484044      -2.15620109
H        0.51429204       1.62737518      -0.37604709
H        0.36033436       0.06883767      -1.22679412
H        2.80674126       0.28733917      -2.00547136
H        2.71683248       1.93476882       0.59325823
H        4.85964812       0.62133980       0.79944007
H        5.13813081       1.00476869      -2.24074763
H        4.92555330      -0.55439182      -1.40004101
H        6.39893551       0.40180588      -1.13906513
H        5.07301445       3.14297462      -0.67584314
H        6.23375302       2.48032467       0.27322978
