18
Properties=species:S:1:pos:R:3 -1807.4445637496626=T 11.331793=T 12.21057=T -8.4487=T -6.3555=T -9.871=T 0.8814=T -0.0579=T 3.021=T 9.16043=T -2.81128=T 7.9819583094=T 12.5797559446=T 0.101308805=T pbc="F F F"
C       -0.86625347       0.00144016      -1.15622624
C       -0.64906599       1.05788557      -0.03350895
C       -1.20289151      -0.00145175       0.95811199
C       -0.64931803      -1.05817125      -0.03644266
C        0.86259460      -1.23205500       0.22160099
N        1.63685228      -0.00044516      -0.02637861
C        0.86290170       1.23066101       0.22501525
H       -1.90366059       0.00205590      -1.51770320
H       -0.18053733       0.00256389      -2.01872348
H       -1.16122696       2.02909285      -0.10318049
H       -0.79687652      -0.00291427       1.98309663
H       -2.30173635      -0.00138423       0.99790171
H       -1.16175213      -2.02903984      -0.10881441
H        1.00803984      -1.55726320       1.26835000
H        1.27981514      -2.02449374      -0.41909343
H        1.91625147       0.00087653      -1.00741862
H        1.28031309       2.02476931      -0.41347933
H        1.00842076       1.55292321       1.27266285
