15
Properties=species:S:1:pos:R:3 -1546.7000459345693=T 10.629409=T 11.69059=T -9.4639=T -7.2886=T -10.744=T 0.7755=T -0.1987=T 1.456=T 10.99085=T -1.02631=T 5.3384528034=T 10.433669872=T 0.32050112=T pbc="F F F"
C        0.93309919      -0.01975715       0.23608792
C        2.42271042       0.00269424      -0.12721357
C        3.25065989       1.05020033       0.69222801
N        3.59514563      -0.02434358       1.65784954
C        3.27068034      -1.06306772       0.64707187
C        2.62240065       0.03581060      -1.56885272
N        2.78528027       0.06105888      -2.72498607
H        0.82896989      -0.04444776       1.32868183
H        0.44231023      -0.90608602      -0.18840034
H        0.42454609       0.87410243      -0.14990863
H        2.67622964       1.88776530       1.11693487
H        4.10022814       1.44125707       0.10698669
H        4.56810564      -0.02172680       1.96912632
H        4.12708507      -1.41331303       0.04612185
H        2.71197892      -1.92833679       1.03563244
