15
Properties=species:S:1:pos:R:3 -1575.2545481851876=T 11.232306=T 12.39662=T -9.7416=T -7.4708=T -9.781=T 0.9155=T -0.0849=T 2.277=T 9.35501=T -1.837=T 4.3319840498=T 10.3281453874=T 0.217490444=T pbc="F F F"
O        0.90759174       0.01700372       0.15308305
C        2.32424346      -0.03469269       0.04081914
C        3.05201393       1.04578375       0.86013623
C        4.13745450      -0.02254981       1.24089134
C        3.10150483      -1.12594010       0.82516437
C        5.33426863       0.01715557       0.42053830
C        6.33485897       0.05014192      -0.26857667
H        0.52413866      -0.58306757      -0.50952733
H        2.64006916      -0.00913939      -1.01634077
H        2.45255471       1.31215161       1.74172323
H        3.38824686       1.95329194       0.34496156
H        4.42136773      -0.03292386       2.30310968
H        3.48539062      -1.99605545       0.27797847
H        2.51835861      -1.45098107       1.69785826
H        7.21644759       0.07890143      -0.87540885
