13
Properties=species:S:1:pos:R:3 -1425.6386552472686=T 10.251065=T 10.90229=T -9.2424=T -7.2542=T -10.64=T -1.1159=T -2.9377=T -1.819=T 9.97144=T 2.31535=T 2.7188393996=T 4.9565635248=T 0.327261771=T pbc="F F F"
C        1.12564175      -0.34469358       0.72526915
C        2.52879484      -0.77491059       0.40012010
O        2.93372913      -1.92407812       0.49814690
C        3.49051780       0.34766704      -0.09158052
O        3.06113556       1.48856028      -0.23534616
C        4.88809140      -0.06725253      -0.35952663
C        5.80082039       0.81996227      -0.78526978
H        1.14413771       0.40134502       1.53362757
H        0.52948174      -1.21363343       1.01983118
H        0.67710548       0.16584524      -0.13853957
H        5.12831345      -1.11784691      -0.19168012
H        5.51960746       1.86387407      -0.94330700
H        6.83259328       0.52903123      -0.98402511
