15
Properties=species:S:1:pos:R:3 -1511.8500291821767=T 11.85328=T 12.46625=T -8.4457=T -6.5039=T -9.08=T 1.0658=T -0.1222=T 0.763=T 8.59127=T -0.12504=T 4.3264666728=T 10.7609433176=T 0.59875363=T pbc="F F F"
C        0.97658349       0.04679057       0.29853970
C        2.45862835      -0.00815989       0.07999819
C        3.10796759      -1.37707423      -0.12061039
C        3.60699762      -1.59437498      -1.47632173
C        4.02692701      -1.73414543      -2.60773104
N        3.12958894       1.09315108       0.09700206
N        4.50176672       1.01813140      -0.07261574
H        0.66011184       1.08374057       0.46105431
H        0.67996000      -0.55850703       1.17132125
H        0.43389483      -0.35781297      -0.57141051
H        2.38834381      -2.17006592       0.13383399
H        3.95222225      -1.46445268       0.58901676
H        4.38003729      -1.87383620      -3.60904478
H        4.80752537       0.33786860      -0.77943931
H        4.84956489       1.94740712      -0.30182277
