14
Properties=species:S:1:pos:R:3 -1417.368154747894=T 10.13734=T 10.74012=T -9.1798=T -7.1331=T -9.686=T 1.3439=T -0.4007=T 0.254=T 9.28076=T 0.37687=T 5.059124744=T 9.8555479512=T 0.279421037=T pbc="F F F"
C        2.10857988      -0.13294546      -0.04187212
C        0.78425306      -0.85694718       0.17642089
C       -0.40162520      -1.45813214      -0.53439647
C       -1.49102489      -0.44170796      -0.12730486
N       -1.39357603       0.74145745       0.39798888
O       -0.08263120       1.36497500       0.51365678
C        0.79984901       0.58059739      -0.25194432
H        2.70760746      -0.24434305      -0.94821899
H        2.68773115      -0.01226805       0.87380105
H        0.61371496      -0.89733959       1.25799311
H       -0.70049973      -2.45615264      -0.17280938
H       -0.30078198      -1.52387965      -1.62938640
H       -2.53912578      -0.76101319      -0.15760777
H        0.58296929       0.71269908      -1.31979040
