17
Properties=species:S:1:pos:R:3 -1679.959955515698=T 10.511657=T 11.86853=T -9.0569=T -6.8799=T -10.628=T 0.789=T -0.2637=T 2.638=T 10.33954=T -2.28646=T 8.1537161152=T 10.318548871=T 0.186577775=T pbc="F F F"
C        3.03610310      -1.21981212      -0.46492596
C        2.39631314       0.02363991       0.16022462
C        3.31248803       1.22704619       0.18592060
O        4.48339895       1.08520359       0.99132579
C        3.55125119       2.05603530      -1.05474699
C        2.78748252       2.64724618       0.11906816
O        3.38231008       3.62664566       0.93084739
H        2.34146196      -2.07112201      -0.45052820
H        3.94564331      -1.51126387       0.07824409
H        3.32054344      -1.03044680      -1.51038236
H        2.06683651      -0.19587220       1.19302963
H        1.48267381       0.29913734      -0.39129320
H        4.18322156       0.82877129       1.88422781
H        3.01159016       1.79114645      -1.96553593
H        4.56660963       2.42681155      -1.20455507
H        1.71292569       2.81513128       0.01787365
H        4.20904691       3.21981227       1.26437599
