13
Properties=species:S:1:pos:R:3 -1349.545611276682=T 12.314945=T 12.81589=T -9.0635=T -6.951=T -8.653=T 0.722=T -0.9144=T -0.113=T 8.09146=T 0.76833=T 4.2681064626=T 10.9651730568=T 0.267648569=T pbc="F F F"
N        2.47018218      -0.52733191      -1.42288560
C        2.28764727       0.02039985      -0.06687122
C        2.79625726       1.43355484      -0.00538452
C        2.05461932       2.55856036       0.26699888
S        3.06070890       3.96628900       0.23459889
C        4.41787947       2.93727447      -0.15460552
N        4.13724280       1.66366179      -0.24345186
H        2.26097070      -1.52857991      -1.41440546
H        3.46044932      -0.44127902      -1.67173366
H        2.80957395      -0.55612601       0.72446446
H        1.21469124       0.01145734       0.17723630
H        0.99095650       2.63733963       0.47135950
H        5.40959108       3.36256957      -0.29934019
