19
Properties=species:S:1:pos:R:3 -1876.6754663335014=T 12.123915=T 13.34701=T -9.4913=T -7.3341=T -9.43=T 1.0305=T -0.1476=T 1.259=T 8.78766=T -0.60772=T 6.4578976002=T 0.377206784=T pbc="F F F"
C        0.97979956      -0.13606579       0.08012463
C        2.47591225       0.16590863       0.05703953
C        2.87525368       1.62483101       0.02524561
C        1.99524399       2.63280168      -0.08025331
C        4.37671029       1.85540489       0.14644775
C        4.86323807       3.27441444      -0.12632580
O        4.84209506       1.39185703       1.43890587
H        0.81000665      -1.22138897       0.10995236
H        0.46997456       0.25433677      -0.81306853
H        0.49379978       0.30197770       0.96451492
H        2.93697236      -0.32317440      -0.82132349
H        2.96966777      -0.29832235       0.92711744
H        0.92132898       2.45180554      -0.13787250
H        2.31349907       3.67482695      -0.12026237
H        4.87907258       1.17271208      -0.56184835
H        4.43016821       3.99392730       0.58529946
H        4.60298570       3.59796127      -1.14412768
H        5.95508745       3.30740756      -0.01718999
H        4.37406401       1.92508864       2.10814444
