17
Properties=species:S:1:pos:R:3 -1612.4215300667372=T 11.488837=T 12.25796=T -7.797=T -5.8432=T -9.031=T 0.8721=T -0.0535=T 0.864=T 8.53574=T -0.24497=T 4.9788686062=T 5.5395828926=T 0.157651743=T pbc="F F F"
C        2.34154897      -0.97147868      -1.07221262
N        3.76315320      -0.74039867      -0.82305049
N        3.99175788       0.58150541      -0.41810160
C        5.11934090       0.83510529       0.14349815
C        6.21134088      -0.14097211       0.45758378
O        5.43149834       2.11573852       0.51281412
C        4.42945701       3.10556099       0.22946432
H        2.21368173      -2.01645339      -1.38693084
H        2.01429198      -0.31942831      -1.89270919
H        1.69744728      -0.77548608      -0.19476490
H        4.11692988      -1.41803459      -0.13729671
H        5.91492977      -0.82596176       1.26878952
H        7.11751616       0.38720269       0.77290310
H        6.43229863      -0.75317864      -0.42961497
H        4.84426047       4.05118770       0.59547501
H        3.48797654       2.86613175       0.74564318
H        4.22896038       3.16012989      -0.85045986
