15
Properties=species:S:1:pos:R:3 -1472.553119503059=T 11.555701=T 11.75302=T -9.0765=T -7.0071=T -9.442=T 1.0342=T -0.5442=T 0.432=T 8.98882=T 0.16259=T 4.8656073952=T 6.751905602=T 0.290943013=T pbc="F F F"
N        0.77157984       0.78213224      -0.67797794
N        2.13778246       0.75040623      -0.83152839
C        2.89147848       1.36862088      -0.00119280
C        4.39197328       1.23372593      -0.16427295
O        4.71759510       0.43299550      -1.28190246
C        5.03648168       2.60332500      -0.22378482
C        5.78904336       3.03886663      -1.23700098
H        0.31876576       0.64231269      -1.57919129
H        0.41465668       1.62139830      -0.20670949
H        2.50580755       1.98854171       0.82502296
H        4.77351964       0.73820986       0.75860117
H        3.85138679       0.13866821      -1.64100810
H        4.86388145       3.23509975       0.65494825
H        5.97404315       2.40177891      -2.10287607
H        6.23830478       4.03217817      -1.21782707
