15
Properties=species:S:1:pos:R:3 -1544.1781478770417=T 10.983309=T 11.71441=T -8.8767=T -6.7902=T -9.455=T 0.8862=T -1.0194=T -0.272=T 9.01431=T 0.89495=T 3.655045287=T 5.4623148174=T 0.23575727=T pbc="F F F"
C        4.46367149      -0.84122751      -0.38977355
O        3.31862008      -0.11317111       0.06648639
C        3.41958909       1.24253429       0.04869677
C        4.45263714       1.99780632      -0.37093663
C        4.43411569       3.50152829      -0.29608300
C        5.39819445       3.96676028       0.78295633
O        6.40936365       4.61304834       0.58358377
H        4.20948732      -1.90117595      -0.28378399
H        5.34818681      -0.60512257       0.22378798
H        4.67892377      -0.61315172      -1.44620399
H        2.49586142       1.68873309       0.42737748
H        5.36725613       1.53903388      -0.74980606
H        3.42506500       3.85253611      -0.01995538
H        4.72423908       3.96875078      -1.24878746
H        5.12303888       3.62686747       1.81619134
