13
Properties=species:S:1:pos:R:3 -1274.8347775413101=T 8.071065=T 8.82474=T -9.2984=T -7.0431=T -10.825=T 0.9684=T -0.0511=T 3.055=T 10.53051=T -3.30719=T 8.4811755398=T 10.6864401302=T 0.347190336=T pbc="F F F"
C        0.94795135       0.02004653      -0.11578405
C        2.44777883      -0.01477330       0.03329483
O        2.77819268      -0.06602614       1.41482335
C        3.29328189      -0.76660012      -0.96338498
C        3.32566095       0.76069614      -0.91488280
H        0.66162233       0.05527225      -1.17471707
H        0.53539310       0.90580411       0.38874293
H        0.50002148      -0.87617192       0.33769684
H        3.74662438      -0.03711289       1.49916758
H        2.80388635      -1.25163781      -1.80976624
H        4.16826836      -1.29891989      -0.58497312
H        4.22333773       1.23070920      -0.50742307
H        2.85811057       1.31944385      -1.72749422
