16
Properties=species:S:1:pos:R:3 -1660.411194441611=T 10.747699=T 11.77458=T -8.8192=T -6.7861=T -10.42=T 0.9916=T 0.1328=T 3.106=T 9.8198=T -2.71803=T 8.4330193774=T 12.6083347176=T 0.109383601=T pbc="F F F"
C       -1.79445991       0.84636718       0.34198008
C       -1.15017058      -0.33465231      -0.35239972
C       -0.31986940      -1.25975439       0.53445271
N        0.82951791      -0.47706698       1.07329993
C        1.78347111      -0.07525375       0.01754681
C        0.75418127       0.89118025       0.48684048
C       -0.47253683       1.02078800      -0.36827124
H       -2.67615228       1.28934527      -0.12137039
H       -1.79485064       0.85330383       1.43471944
H       -1.62042705      -0.73393006      -1.25145103
H       -0.90221003      -1.63500836       1.39168263
H        0.05274235      -2.13386345      -0.02304380
H        2.81872898       0.01787731       0.35284713
H        1.64874828      -0.49582769      -0.98491132
H        1.03024742       1.71086571       1.15724390
H       -0.43231060       1.62227944      -1.27870562
