15
Properties=species:S:1:pos:R:3 -1566.21498378124=T 10.9235=T 12.14132=T -10.115=T -7.7842=T -10.068=T 0.8932=T -0.0632=T 2.135=T 9.66189=T -1.73415=T 4.3626581862=T 10.5738484436=T 0.560671821=T pbc="F F F"
C        4.45131820      -0.92374512      -2.54570741
C        4.12841463      -0.53204316      -1.44287439
C        3.73464508      -0.04724856      -0.12424558
C        4.26780508       1.36286428       0.21241724
C        5.77188761       1.40843852       0.33446554
C        6.63780277       1.83022966      -0.77755109
O        6.37938365       2.71681033       0.33221669
H        4.73738924      -1.27849015      -3.51464484
H        4.07750152      -0.76487297       0.64108632
H        2.63456388      -0.03865969      -0.06077518
H        3.82260950       1.68112787       1.16867858
H        3.94463422       2.08238554      -0.55435785
H        6.20438280       0.72477482       1.07853247
H        6.17513883       2.12193347      -1.72591876
H        7.66258297       1.45029516      -0.84262174
