13
Properties=species:S:1:pos:R:3 -1373.922274270413=T 10.376908=T 10.40832=T -8.2638=T -6.4242=T -9.294=T 0.7253=T -0.8192=T -0.364=T 8.73466=T 0.90373=T 4.1378715682=T 4.6741730112=T 0.263667336=T pbc="F F F"
C        1.02541167       0.01676400       0.08461064
N        2.41444882       0.04787905      -0.37005511
N        3.20070824       1.10350332       0.13986745
C        4.56442734       0.67370504       0.23741796
O        5.50433584       1.43795622       0.43892245
C        4.49515335      -0.76908666       0.02877749
C        3.20984721      -1.07894646      -0.29888736
H        0.50361188       0.91562696      -0.26785371
H        0.95519209      -0.03791424       1.18294509
H        0.54120555      -0.85973241      -0.36361665
H        3.03639509       2.00700947      -0.30629525
H        5.34743003      -1.43762506       0.07015322
H        2.75165289      -2.04666924      -0.49248624
