17
Properties=species:S:1:pos:R:3 -1634.9652672730213=T 11.418376=T 12.37341=T -8.7627=T -6.5727=T -9.534=T 1.0298=T 0.0632=T 1.353=T 9.01291=T -0.79662=T 6.6836637076=T 0.456813985=T pbc="F F F"
C        1.14561826      -0.13514373       0.54984489
N        2.60345667      -0.06082674       0.48713865
C        3.07872122       1.21536894      -0.04675921
C        4.60895025       1.23441194      -0.15510627
C        5.14350234       2.56258565      -0.60322686
C        5.85960600       2.77280882      -1.71364622
H        0.84098659      -1.14186003       0.86776770
H        0.63515443       0.09803644      -0.40901643
H        0.77551360       0.57688169       1.30387618
H        2.95052064      -0.81603343      -0.11037897
H        2.75015486       2.01149106       0.64469078
H        2.63790207       1.46118153      -1.03872914
H        4.94190300       0.44775330      -0.85380953
H        5.01837395       0.97893634       0.83776936
H        4.91132642       3.41572429       0.04609317
H        6.11410888       1.95238462      -2.39012237
H        6.21984082       3.76711931      -1.98166573
