21
Properties=species:S:1:pos:R:3 -2072.489621430645=T 13.817737=T 15.29285=T -8.6209=T -6.5916=T -8.64=T 0.9058=T 0.0172=T 1.529=T 8.06851=T -0.83407=T 6.0292036066=T 0.392586271=T pbc="F F F"
C        0.83221037       1.01667891      -1.32802208
C        2.36097452       1.04288754      -1.29696123
C        2.92607236       1.66852614      -0.00754079
C        4.42681655       1.66701151       0.03053184
C        5.26683037       2.72059987       0.03773204
C        4.83332153       4.16338561       0.03227079
C        6.76042425       2.51687937       0.05533836
H        0.45644713       0.56191328      -2.25598406
H        0.41533310       2.03390000      -1.26340114
H        0.42489779       0.43878528      -0.48385949
H        2.74532234       1.60671288      -2.16308683
H        2.75420015       0.01719488      -1.40254501
H        2.54167704       1.09212982       0.85487006
H        2.52405829       2.68766978       0.10587058
H        4.88397806       0.66890614       0.03005261
H        3.74515470       4.29007039      -0.00826806
H        5.26970921       4.69433807      -0.83020411
H        5.20227908       4.68251511       0.93289721
H        7.02730268       1.45159888       0.05315133
H        7.21417003       2.98394059       0.94591174
H        7.23467045       2.99285596      -0.81964375
