19
Properties=species:S:1:pos:R:3 -1878.6288358258962=T 12.093266=T 13.08696=T -9.4449=T -7.2773=T -9.366=T 0.9609=T -0.1111=T 1.273=T 8.72417=T -0.6275=T 6.3970700686=T 0.339709768=T pbc="F F F"
C        2.42371474      -0.77560018       1.43214783
C        2.44438727      -0.03833505       0.11566695
C        1.90919898      -0.58174750      -0.98962425
C        3.12611616       1.33734206       0.12114312
C        3.14829314       2.02129527      -1.24977709
C        2.47777727       2.26704800       1.15472847
O        4.49671970       1.16673634       0.58477804
H        3.40974118      -0.74379781       1.91674255
H        2.12933197      -1.82332630       1.29044603
H        1.70730778      -0.31819328       2.13243413
H        1.45166330      -1.57284916      -0.95839818
H        1.89529062      -0.06934069      -1.95134423
H        3.64836792       1.39458926      -2.00315608
H        3.70533428       2.96389112      -1.16536681
H        2.13458348       2.24750903      -1.60957234
H        2.55716033       1.84721046       2.16531350
H        1.41669306       2.42459185       0.91820588
H        2.99099343       3.23859509       1.14904196
H        4.94091541       0.58798150      -0.06119949
