15
Properties=species:S:1:pos:R:3 -1469.1552354264163=T 10.548603=T 10.98775=T -8.1905=T -6.314=T -9.922=T 0.9173=T -0.0217=T 0.763=T 9.1724=T -0.21977=T 4.8630036892=T 6.0616383442=T 0.193836129=T pbc="F F F"
N        1.17042110       0.14388748       0.52010916
C        2.28928654       0.22480491      -0.11219719
N        3.21889650       1.20001694       0.19628356
C        2.78109528       2.49086486       0.75108877
C        3.22341258       3.51281531      -0.30278808
C        4.46716104       2.82795043      -0.85837110
O        4.12187400       1.43871865      -0.94009110
H        0.66409079      -0.69403552       0.21802841
H        2.66768415      -0.46453828      -0.88207705
H        3.27848574       2.66523589       1.71702823
H        1.69469247       2.43906528       0.90972671
H        2.46011666       3.61840394      -1.08671266
H        3.43340530       4.49936643       0.12927706
H        4.73675242       3.13410434      -1.87813123
H        5.33586542       2.97157934      -0.18806348
