15
Properties=species:S:1:pos:R:3 -1547.674158324294=T 9.974309=T 11.23419=T -9.4821=T -7.4551=T -10.819=T 0.8457=T -0.9524=T -0.063=T 9.83786=T 0.77475=T 3.747662829=T 11.4430770938=T 0.26195422=T pbc="F F F"
C        0.97527450       0.09607081       0.06233265
C        2.49580393       0.14345875       0.15482136
C        3.09537793       1.43568648      -0.36189441
O        2.45481442       2.28717841      -0.96462405
C        4.56826071       1.66833869      -0.13324191
C        5.12459374       1.68363414       1.24072946
O        5.37615087       0.58087061       0.36449329
H        0.59797527      -0.87506745       0.40870703
H        0.63900147       0.25338944      -0.97068194
H        0.51726989       0.88356055       0.67665803
H        2.96378917      -0.66835434      -0.43124064
H        2.85418521      -0.03296094       1.18284233
H        5.04232724       2.30689454      -0.88701245
H        4.46673032       1.47358880       2.09120795
H        5.98060533       2.33387150       1.44669330
