12
Properties=species:S:1:pos:R:3 -1252.144609819808=T 8.277548=T 8.7004=T -8.9212=T -6.7045=T -9.197=T 1.0254=T 0.04=T 1.1=T 8.78581=T -0.57837=T 6.047975087=T 0.288285135=T pbc="F F F"
C        0.35211414       1.26302322       0.02077621
O        1.22680721       0.36287494      -0.60419521
C        1.03812783      -0.96929659      -0.08550866
C       -0.42017046      -1.27339381       0.08460550
C       -1.34261475      -0.31187626      -0.08100707
O       -1.03032919       1.00713773      -0.29072320
H        0.57367546       2.26456126      -0.36406634
H        0.45491683       1.21442346       1.12275113
H        1.60642773      -1.09190227       0.85881323
H        1.49497230      -1.63577517      -0.83365545
H       -0.73437892      -2.29704243       0.28509975
H       -2.41951817      -0.48255407      -0.06681990
