22
Properties=species:S:1:pos:R:3 -2079.2462638655775=T 13.194272=T 14.78266=T -8.529=T -6.4612=T -10.028=T 0.9374=T 0.0451=T 3.117=T 9.28095=T -2.84279=T 8.0939548632=T 10.885474856=T 0.171341679=T pbc="F F F"
C        1.44703010       0.59503911      -2.20304604
C        2.52322860       1.50332330      -1.60364822
C        3.88897685       0.81504090      -1.50491821
C        4.99708250       1.64386963      -0.83924501
C        6.25501537       0.79388145      -0.63836188
N        5.30192848       2.82550974      -1.66119739
C        6.12426309       3.82976554      -0.98716294
H        0.47436623       1.10415809      -2.26115426
H        1.31403586      -0.31458611      -1.59738378
H        1.72021912       0.27746140      -3.22103162
H        2.21099334       1.83541509      -0.59793623
H        2.59452563       2.41487880      -2.22166616
H        4.23174250       0.52048921      -2.51276863
H        3.77029211      -0.11722540      -0.92667888
H        4.63135966       1.95179801       0.17079132
H        6.64923830       0.46286123      -1.61097733
H        6.02245638      -0.09344186      -0.03199891
H        7.04795665       1.34912146      -0.11890768
H        4.41966110       3.26527676      -1.92814851
H        7.16611811       3.48655620      -0.90919132
H        5.77519951       4.08334505       0.03745261
H        6.13104051       4.75111241      -1.58575092
