18
Properties=species:S:1:pos:R:3 -1745.2718597022895=T 11.117107=T 12.53171=T -9.5259=T -7.3575=T -10.989=T 0.8281=T -0.1387=T 2.758=T 10.40021=T -2.43113=T 8.7009531234=T 11.5471137464=T 0.111763102=T pbc="F F F"
C        1.04291967      -0.21669876      -0.14746762
C        2.56756564      -0.11417907      -0.16614389
C        3.07887425       1.25740355       0.30149777
O        2.65183847       1.55702820       1.63041952
C        4.60219988       1.33293474       0.21952928
C        5.37078931       2.38642623       0.93017203
N        5.27848364       1.02044720       1.50006908
H        0.70606679      -1.22160684      -0.43829227
H        0.58956947       0.50449268      -0.84535299
H        0.65545754       0.00072753       0.85710527
H        2.94740576      -0.30105261      -1.18608888
H        3.00976652      -0.88851840       0.48439811
H        2.64694093       2.04039627      -0.34902487
H        3.36236713       1.18131509       2.19950164
H        5.04395586       0.93170708      -0.69816836
H        4.82856189       3.14350215       1.50046961
H        6.32146944       2.70713533       0.49852592
H        6.14273781       0.49640962       1.34401064
