15
Properties=species:S:1:pos:R:3 -1517.0639201654894=T 10.417443=T 11.04524=T -8.4978=T -6.6011=T -9.592=T 0.7612=T -0.2899=T 1.067=T 8.78295=T -0.43331=T 4.9449460366=T 8.628123747=T 0.213567048=T pbc="F F F"
O        0.97491464       0.07432889       0.02475804
C        2.39755267      -0.05767330       0.00838888
C        3.00912665       1.10864787       0.80453518
N        4.28098373       0.54852762       1.23245871
C        4.26254867      -0.82878126       1.35771765
N        5.21015252      -1.48427596       1.92799688
C        2.95480035      -1.30180928       0.72603604
H        0.60585440      -0.52722238      -0.64344448
H        2.77640380      -0.02243983      -1.02878206
H        2.33435576       1.35696641       1.64552078
H        3.14559243       2.00834302       0.18847603
H        4.94359384       1.07536855       1.79494960
H        5.02114150      -2.49107369       1.88186171
H        3.10729240      -2.16814922       0.06858302
H        2.25737663      -1.59293743       1.52808401
