19
Properties=species:S:1:pos:R:3 -1864.1024151446834=T 11.754065=T 13.19643=T -9.2589=T -7.1658=T -10.694=T 0.9303=T 0.0394=T 3.022=T 10.3294=T -2.65361=T 8.4683305902=T 10.6233188576=T 0.257141176=T pbc="F F F"
C        1.84635020      -0.60656456      -1.15221720
O        1.69411173       0.52025395      -0.29089379
C        2.92382805       1.13559502       0.07094264
C        3.76981843       0.32651118       1.02863008
C        3.56573772       2.01829031      -0.98230231
C        2.80424751       2.63288788       0.18416376
C        3.49700769       3.45199902       1.24915022
H        2.42893001      -0.35063194      -2.05566021
H        0.83409358      -0.90853282      -1.45029819
H        2.33340134      -1.45926560      -0.64667870
H        4.67474237       0.87322721       1.32275513
H        4.09709770      -0.61968355       0.57255693
H        3.19680070       0.09092649       1.93809332
H        3.09896100       2.05375123      -1.96752444
H        4.65498225       2.10383824      -0.98335563
H        1.80312599       2.98422616      -0.08114098
H        4.51940024       3.09883381       1.44509867
H        2.94418595       3.42500011       2.20077172
H        3.57172753       4.50469787       0.93658900
