12
Properties=species:S:1:pos:R:3 -1275.151880086946=T 8.700905=T 9.1359=T -10.2187=T -8.1421=T -10.323=T 0.2018=T -1.5715=T -0.667=T 9.80004=T 1.13734=T 4.1106566412=T 5.5269735164=T 0.330268847=T pbc="F F F"
C        0.99172386      -0.00412660      -0.09915501
C        2.48732785      -0.09775631      -0.01580778
C        3.16449049      -1.25911740      -0.04182162
C        3.19689318       1.21266602       0.20760066
O        4.47597484       1.31253492      -0.27281855
O        2.68753711       2.15102066       0.78388052
H        0.68518470       0.60047382      -0.96606647
H        0.59957014       0.50879308       0.79010541
H        0.53580253      -0.99797882      -0.17956193
H        2.64331529      -2.21189227      -0.14929837
H        4.24693719      -1.31293765       0.09280728
H        4.67098284       0.51222055      -0.79793414
