15
Properties=species:S:1:pos:R:3 -1444.8236751404002=T 9.341602=T 10.03736=T -9.3373=T -7.1297=T -10.438=T 0.8314=T -0.1755=T 2.796=T 9.8831=T -2.52077=T 8.0802048158=T 12.3232661064=T 0.107041122=T pbc="F F F"
C        0.92692641      -0.00150689       0.13178443
C        2.43977646       0.01649590      -0.05481379
N        2.76123122      -0.03258745      -1.47316869
C        3.15084706       1.03088659       0.89645283
O        3.52454624      -0.03930041       1.80823221
C        3.17502942      -1.03880511       0.80806874
H        0.66935653      -0.02552175       1.19935612
H        0.49197027      -0.88351479      -0.35913354
H        0.46858244       0.89950570      -0.30659411
H        3.76110953       0.12142032      -1.62498970
H        2.26219458       0.69997139      -1.98432975
H        2.53264382       1.79792677       1.39213818
H        4.04065113       1.50527723       0.44014415
H        4.07378741      -1.45063024       0.31338625
H        2.57504748      -1.86015724       1.23095667
