18
Properties=species:S:1:pos:R:3 -1659.939398468689=T 10.678278=T 11.55816=T -8.9103=T -6.6848=T -10.274=T 0.9233=T -0.072=T 3.132=T 9.79314=T -2.84773=T 8.4355238946=T 12.0452894944=T 0.1384938=T pbc="F F F"
C        1.20060756      -0.32517828       0.92844286
C        2.64974807      -0.34308194       0.44101421
C        3.29785414       1.05169664       0.33386461
N        3.33130557       1.82556262       1.59138306
C        4.73365554       0.97077330      -0.21369677
N        5.64816791       0.39880670       0.79193946
H        0.78130979      -1.34091597       0.96448440
H        0.55926401       0.27438670       0.26240749
H        1.11576935       0.09547346       1.94213326
H        2.69043434      -0.82094712      -0.55342826
H        3.27302363      -0.96193621       1.10765156
H        2.71313908       1.65137712      -0.38766001
H        3.69970415       1.22120630       2.33348579
H        2.38092952       2.07030661       1.87577868
H        5.03338883       1.98233779      -0.54710657
H        4.74058830       0.31382174      -1.09767399
H        5.92028217       1.13615969       1.44733396
H        6.51125804       0.08961085       0.34217626
