15
Properties=species:S:1:pos:R:3 -1541.8376875876195=T 10.894279=T 12.0033=T -9.1393=T -7.1329=T -10.362=T 0.7884=T -0.2209=T 1.458=T 9.55399=T -1.03576=T 5.3917419862=T 10.5860238688=T 0.149271721=T pbc="F F F"
C        1.02132083      -0.02668990       0.04038875
N        2.47114332       0.01853624       0.09521910
C        3.12478466       1.05274024       0.93612052
C        4.20945976       0.01768051       1.31228054
C        3.16548298      -1.04370798       0.86208937
C        3.60921723      -2.20409344       0.09266822
N        3.97096449      -3.13421705      -0.51180714
H        0.70189008      -0.90375632      -0.54020679
H        0.65028416       0.87045333      -0.47497111
H        0.55095320      -0.07497673       1.04636298
H        2.51192440       1.34020699       1.81475445
H        3.43237660       1.95787400       0.39326752
H        5.07464348       0.04557987       0.64091065
H        4.53389564      -0.03254597       2.35631411
H        2.57440919      -1.40574381       1.73115883
