13
Properties=species:S:1:pos:R:3 -1369.6144731526886=T 9.366756=T 9.69154=T -8.866=T -6.7379=T -9.013=T 1.4106=T -0.2076=T 1.197=T 8.57863=T -0.59669=T 5.9186080946=T 11.6413679036=T 0.305663561=T pbc="F F F"
C        0.99890999      -0.97299273      -0.01520066
C       -0.44395228      -1.37747344      -0.23039396
C       -1.28441810      -0.35021972      -0.00631113
C       -0.53636854       0.90273653       0.30378181
N        0.35612270       1.41533441      -0.77543600
C        0.91924399       0.52801013       0.25683934
H        1.43809915      -1.50500531       0.84634663
H        1.63877603      -1.20967605      -0.88297924
H       -0.73861815      -2.37339358      -0.56429033
H       -2.37187450      -0.39401426      -0.07866908
H       -0.94830658       1.66612391       0.96674956
H        0.16686502       0.87396908      -1.62872931
H        1.66330127       0.99758103       0.90321235
