18
Properties=species:S:1:pos:R:3 -1771.6084574106671=T 11.949601=T 13.09376=T -9.0551=T -6.913=T -8.958=T 1.2901=T 0.1397=T 1.487=T 8.42506=T -0.8474=T 6.281502718=T 0.413810678=T pbc="F F F"
C        2.67687665      -1.06646650       1.27026428
C        3.24993540      -0.42936139      -0.00548586
C        3.16243668       1.06974295       0.00427132
C        4.20504308       1.90978074      -0.05811823
C        4.12067786       3.40849185      -0.01504021
C        4.86895101       4.01127188       1.18434136
H        2.74061435      -2.16351327       1.22951996
H        1.61855077      -0.79712746       1.40768633
H        3.22572680      -0.72379784       2.15954986
H        2.69602568      -0.82236454      -0.87701763
H        4.30024317      -0.73530469      -0.13937505
H        2.15182001       1.49379916       0.08647799
H        5.21623389       1.48533214      -0.13095028
H        3.06276679       3.71665092       0.00820686
H        4.54777615       3.82552205      -0.94480084
H        4.44730280       3.64655767       2.13231388
H        4.80637055       5.10911178       1.18085149
H        5.93457837       3.73627456       1.16621477
