22
Properties=species:S:1:pos:R:3 -2080.4549739043805=T 13.362511=T 15.35303=T -8.534=T -6.4401=T -10.03=T 0.9705=T 0.0466=T 3.183=T 9.28393=T -2.94262=T 8.1308902926=T 11.398776896=T 0.292526107=T pbc="F F F"
C       -0.36380069       0.74223747      -0.44634798
C        1.08520951       0.27392943      -0.59512424
C        2.10084195       1.41448481      -0.48090176
C        3.54784912       0.94906657      -0.63252372
N        4.48803268       2.06746542      -0.55114569
C        5.88711599       1.65147924      -0.66576263
C        6.83177068       2.83851343      -0.51463289
H       -1.06933257      -0.09694122      -0.53045640
H       -0.62586484       1.47786596      -1.22232421
H       -0.52956198       1.22042812       0.53150608
H        1.21094763      -0.22715927      -1.57072238
H        1.30567987      -0.49061473       0.16994674
H        1.97789729       1.91179740       0.49929130
H        1.89410702       2.18263509      -1.24488690
H        3.67763019       0.47673079      -1.62293420
H        3.76230508       0.15371814       0.11884804
H        4.35850430       2.54463055       0.34720506
H        6.01726979       1.19912122      -1.66423478
H        6.15884162       0.86054367       0.07011668
H        6.60461755       3.61271352      -1.26086838
H        7.87731624       2.52449800      -0.64204013
H        6.74265358       3.29342641       0.48460241
