15
Properties=species:S:1:pos:R:3 -1460.283802311388=T 11.053587=T 12.59948=T -10.1731=T -8.2705=T -10.186=T 0.6337=T -0.3526=T 0.257=T 9.83285=T 0.05488=T 5.2486249464=T 11.8251523514=T 0.144598994=T pbc="F F F"
C        0.94139808      -0.01405391       0.11621712
C        2.46335587       0.01745531       0.02867774
C        3.15187162       1.16444306       0.82511162
S        4.44089943      -0.01387939       1.38428023
O        4.58728358      -0.08258495       2.84461997
O        5.61745400       0.04972853       0.50241568
C        3.19317108      -1.17660807       0.71091963
H        0.53370535      -0.88572869      -0.41505649
H        0.50151097       0.88774071      -0.33273844
H        0.60961985      -0.06873564       1.16400465
H        2.78147228       0.07428360      -1.02226205
H        2.57551433       1.50496155       1.69570556
H        3.54985073       2.00974642       0.25379035
H        3.61964306      -1.94768582       0.06059701
H        2.63057978      -1.62046270       1.54311741
