9
Properties=species:S:1:pos:R:3 -1017.4907635555458=T 9.33806=T 9.83901=T -8.9084=T -6.8823=T -8.947=T 1.2601=T -0.3568=T -0.052=T 8.4875=T 0.61591=T 3.9414033526=T 10.8677572566=T 0.487704536=T pbc="F F F"
Cl       0.93196208       0.06942416      -0.00929832
C        2.66431988       0.01533023      -0.00134379
C        3.50554377       1.09311273       0.00209490
O        4.80380538       0.65462515       0.00821588
C        4.76397715      -0.71618939       0.00858367
C        3.47495501      -1.16466620       0.00283424
H        3.34757432       2.16432188       0.00094489
H        5.72649382      -1.21491870       0.01322646
H        3.13307858      -2.19379986       0.00167207
