17
Properties=species:S:1:pos:R:3 -1679.6022221967578=T 11.736116=T 12.24207=T -7.8891=T -6.0039=T -8.751=T 1.0694=T -0.221=T 0.782=T 8.19332=T -0.15217=T 5.0038021908=T 0.117870236=T pbc="F F F"
C        0.99408735       0.07593649      -0.27989285
C        2.49978989      -0.03990985       0.01994463
C        2.88470429      -1.32161539       0.78328618
N        2.83017980      -0.88378878       2.19346704
C        3.58987261      -1.66581682       3.15330369
N        3.09828178       0.48124783       2.23983633
C        2.93758535       0.97817177       1.05673898
H        0.67633774      -0.70002139      -0.99183699
H        0.75533336       1.05486647      -0.71950364
H        0.40582085      -0.03627485       0.64194333
H        3.06671618       0.05404557      -0.91863940
H        3.91747829      -1.63711450       0.52634176
H        2.20095274      -2.16411287       0.60566933
H        3.16304803      -2.67642902       3.21461807
H        3.51226427      -1.18790615       4.13693944
H        4.66124316      -1.74914048       2.87864019
H        3.00658430       2.05524198       0.90390391
