14
Properties=species:S:1:pos:R:3 -1381.880820589399=T 9.176077=T 9.6976=T -8.9156=T -6.7489=T -10.066=T 0.8976=T -0.0386=T 3.161=T 9.4287=T -2.95977=T 8.1972847956=T 11.8575622918=T 0.223343092=T pbc="F F F"
C        0.61591898       1.31293593      -0.02816380
N       -0.74394411       1.31869592      -0.61340703
C       -1.43830407       0.13959788      -0.04834889
C       -0.35065230      -0.88307985       0.25349986
N        0.60184614      -1.03254341      -0.87976874
C        0.93987478      -0.14591895       0.26628674
H        1.32165569       1.79233072      -0.72225588
H        0.62630889       1.88220586       0.91818379
H       -0.62812210       1.13311567      -1.61205429
H       -1.94769426       0.41180110       0.89292762
H       -2.19939842      -0.21868625      -0.75667711
H       -0.53800237      -1.72778621       0.92007870
H        1.10638190      -1.91783119      -0.76898810
H        1.75272125      -0.41926722       0.94270712
