13
Properties=species:S:1:pos:R:3 -1350.4876671488726=T 9.731538=T 10.90591=T -10.1408=T -7.9816=T -11.101=T 0.5568=T -0.6108=T 1.327=T 10.79341=T -0.94997=T 5.3373989224=T 11.5502753894=T 0.258638622=T pbc="F F F"
O        1.77631264       0.09300622      -0.87711004
C        2.57667900      -0.05126239       0.30048421
C        3.41891628       1.19374244       0.46531180
N        3.96770178       1.89383819      -0.69912409
C        2.86150246       2.52879536       0.07390039
C        3.18490535       3.71690101       0.82414027
N        3.41883393       4.67017414       1.45613921
H        1.28455936      -0.73153751      -1.01767725
H        3.25044658      -0.92386139       0.21495604
H        1.95085054      -0.18685553       1.20161296
H        4.09528109       1.16490526       1.32468039
H        3.53928572       1.49456703      -1.54438596
H        1.86351526       2.52549717      -0.37074793
