17
Properties=species:S:1:pos:R:3 -1678.568608583772=T 10.583183=T 11.9135=T -9.2423=T -7.0406=T -10.821=T 0.7482=T -0.2404=T 2.97=T 10.51144=T -2.63341=T 8.4455171662=T 10.5090285628=T 0.23929328=T pbc="F F F"
C        0.79489852       0.12420956      -0.16518279
C        2.28074268       0.00409771       0.11528043
C        2.64654383      -0.10150601       1.58353093
C        3.14309239      -0.76342210      -0.87009982
O        2.50176933      -1.41221308      -1.94838577
C        3.22287760       0.75004248      -0.81230730
O        4.34361718       1.39293774      -0.24169415
H        0.58315445       0.14055585      -1.24152234
H        0.39527560       1.04429695       0.28793721
H        0.25103188      -0.73068341       0.26542739
H        3.73307021      -0.13488268       1.73189029
H        2.20177804      -1.00785803       2.02243853
H        2.26410786       0.76857834       2.13944469
H        3.98915562      -1.30720516      -0.42994061
H        3.11168684      -1.40493516      -2.70661069
H        2.74048750       1.28951350      -1.63784141
H        5.06596048       1.36957350      -0.89343457
