20
Properties=species:S:1:pos:R:3 -1939.0964396010734=T 12.551255=T 14.22083=T -8.6583=T -6.4772=T -9.948=T 0.9464=T 0.0456=T 3.057=T 9.48753=T -2.74139=T 8.1079776798=T 11.764535596=T 0.180043656=T pbc="F F F"
C        0.98731837      -0.24371787      -0.40717638
C        2.49820385      -0.11921490      -0.61297661
C        3.18576375       0.72906834       0.46419381
C        4.67969160       0.86686218       0.26332004
C        5.59092998       1.20556829       1.43062042
C        5.64738736      -0.16643928       0.81831441
N        6.85754924      -0.60267893       0.15064801
H        0.52070359      -0.84776849      -1.19858709
H        0.50229838       0.74476684      -0.41209370
H        0.75472651      -0.72067961       0.55747412
H        2.70046506       0.32319783      -1.60387175
H        2.95610728      -1.12300806      -0.62782951
H        2.99396814       0.28363959       1.45735213
H        2.72064384       1.73197657       0.48993985
H        4.97861540       1.30304803      -0.69639391
H        5.14461816       1.31677596       2.42057553
H        6.43320718       1.87527300       1.24357932
H        5.18744563      -0.96505023       1.41036003
H        7.39002890       0.20464271      -0.18084325
H        6.62545778      -1.15996198      -0.67622547
