15
Properties=species:S:1:pos:R:3 -1525.6044124966381=T 11.141947=T 12.97497=T -9.7035=T -7.4128=T -9.487=T 0.8797=T -0.2066=T 2.149=T 9.07565=T -1.68721=T 4.1659419986=T 10.0951384976=T 0.467765603=T pbc="F F F"
O        0.91250727       0.09347120       0.03999423
C        2.33980031      -0.01707589       0.05234123
C        2.89635320       1.41015996      -0.00179476
C        4.35268872       1.43360828      -0.00215327
C        5.56962020       1.41989581       0.01087788
C        7.02956913       1.45982727      -0.01177140
O        7.57021619       2.78941140       0.05079841
H        0.54080468      -0.80317026       0.08293777
H        2.70800837      -0.58895740      -0.81824225
H        2.69845912      -0.51718974       0.96968001
H        2.50492838       1.97249671       0.86184225
H        2.50421930       1.90354075      -0.90640824
H        7.39739783       0.92734647      -0.90986420
H        7.43902887       0.93478203       0.86522967
H        7.08218842       3.32674340      -0.59874732
