17
Properties=species:S:1:pos:R:3 -1634.421128884971=T 10.587713=T 11.51342=T -8.3697=T -6.2978=T -9.676=T 0.9601=T 0.0289=T 3.247=T 9.02734=T -2.90468=T 7.6666867086=T 11.2554738772=T 0.208316364=T pbc="F F F"
C        2.26133937      -0.75490450      -1.36838915
N        1.84223917       0.32959069      -0.47755001
C        2.93543444       1.12960566       0.04962048
C        3.69150036       0.45373005       1.17712021
C        3.70889993       2.06285050      -0.87508012
C        2.71460181       2.61449278       0.13323647
H        2.91948778      -0.43042037      -2.20062388
H        1.36915539      -1.23361071      -1.79472583
H        2.80055973      -1.52378516      -0.79570101
H        1.18515659       0.93854681      -0.96794302
H        4.48429973       1.10817608       1.56449845
H        4.17023328      -0.47787224       0.83863578
H        3.00449550       0.20594729       1.99952816
H        3.42019452       2.08553166      -1.92756788
H        4.77292078       2.22663212      -0.69382355
H        3.09891643       3.14168886       1.00788502
H        1.77330518       3.01540049      -0.24980011
