17
Properties=species:S:1:pos:R:3 -1646.624942624058=T 11.046977=T 11.75361=T -9.0454=T -6.8032=T -10.204=T 0.5145=T -0.5023=T 0.718=T 9.44383=T -0.06025=T 4.8877017004=T 6.359179947=T 0.185872973=T pbc="F F F"
N        1.28137028      -0.22779232      -1.01727330
C        2.43570011      -0.41350311      -0.27883675
N        2.69888060      -1.45332523       0.43891164
C        3.37252938       0.78186872      -0.29496418
C        4.84097307       0.54486456       0.09390822
C        5.13264335       0.27443061       1.57969628
O        4.93277439      -1.06572722       1.99124341
H        1.28510855       0.46341372      -1.76000836
H        0.67694324      -1.02856083      -1.17440726
H        1.97048676      -2.17506422       0.37737105
H        2.93264355       1.54245957       0.37456961
H        3.33999739       1.22391125      -1.30524079
H        5.38905104       1.45829131      -0.19187155
H        5.26378963      -0.27875021      -0.50396945
H        4.53468316       0.98493692       2.19336685
H        6.19314234       0.50707228       1.77311263
H        4.09516316      -1.36471580       1.54171194
