15
Properties=species:S:1:pos:R:3 -1541.4954999073116=T 11.017986=T 12.18487=T -9.6595=T -7.6743=T -10.843=T 0.778=T -0.2383=T 1.303=T 10.2825=T -0.9116=T 5.3232025254=T 12.1667709772=T 0.27458165=T pbc="F F F"
C        0.99047719       0.02002437      -0.07526896
C        2.49480687      -0.00219342      -0.02004329
C        3.33921738      -0.75077258      -1.02698173
C        2.74941622      -1.47496560      -2.12447611
N        2.26772690      -2.08813856      -2.99366454
N        3.23623309       0.72157323      -1.04680392
C        4.44366514       1.42678602      -0.61927054
H        0.60761301       0.94454434       0.38004657
H        0.57002576      -0.83375283       0.47520764
H        0.63771204      -0.02572360      -1.11324807
H        2.93748657       0.00138872       0.98608761
H        4.26839543      -1.19240491      -0.64844075
H        4.15981929       2.43436424      -0.28475187
H        5.12493722       1.52595455      -1.47537744
H        4.98040790       0.91876603       0.20643539
