16
Properties=species:S:1:pos:R:3 -1606.3249235552291=T 10.234653=T 11.07724=T -8.8888=T -6.7588=T -10.375=T 0.8384=T -0.1138=T 2.961=T 9.74436=T -2.78908=T 8.3282388088=T 10.5103056186=T 0.146095936=T pbc="F F F"
C       -1.22190026      -0.00175194       1.01715261
C       -0.63215179      -1.02275353       0.01282510
C        0.86006944      -1.20233169       0.28293628
O        1.43465370      -0.00192239       0.82482054
C        0.86048814       1.20033719       0.28661885
C       -0.63180066       1.02211546       0.01596554
N       -0.73515402       0.00140863      -1.10416696
H       -0.85196888      -0.00340093       2.05344657
H       -2.32011358      -0.00153910       0.99685449
H       -1.13442969      -1.98451079      -0.16651389
H        1.03829847      -1.98143297       1.04034622
H        1.36238558      -1.48941088      -0.65996776
H        1.36288988       1.49012541      -0.65540733
H        1.03899634       1.97705440       1.04640261
H       -1.13373448       1.98459599      -0.16043225
H       -1.71340819       0.00206713      -1.42007062
