17
Properties=species:S:1:pos:R:3 -1752.1186652429908=T 11.134295=T 12.19663=T -8.9668=T -6.9745=T -10.264=T 1.0306=T -0.7345=T 0.402=T 9.49239=T 0.39922=T 3.7317554252=T 8.1779181824=T 0.123356531=T pbc="F F F"
C        0.93056465      -0.02959618       0.19750716
C        2.43584377       0.03282763      -0.06003069
C        2.75547459       0.02826235      -1.55990995
C        3.24101449       1.10413801       0.75918870
C        4.13212617      -0.00373613       1.39647214
C        3.25030790      -1.04740632       0.69813139
O        3.17888381      -2.25504098       0.74651126
H        0.70433469      -0.02607804       1.27371610
H        0.50435555      -0.94670165      -0.23403370
H        0.42501066       0.83449250      -0.26048284
H        3.83935663       0.05785823      -1.74569410
H        2.30382895       0.90682811      -2.04609901
H        2.35400052      -0.87692307      -2.03779715
H        2.62176520       1.63700663       1.49271664
H        3.77833466       1.83907257       0.14618155
H        5.17440257      -0.02778851       1.04461035
H        4.14157521      -0.07620514       2.49328215
