12
Properties=species:S:1:pos:R:3 -1276.6684562224555=T 8.631592=T 9.20097=T -9.1642=T -7.0151=T -8.905=T 1.2936=T -0.4193=T 1.085=T 8.44587=T -0.47446=T 5.5873422998=T 13.0990093126=T 0.445711713=T pbc="F F F"
C       -1.35776619       0.04678441      -0.42097921
C       -0.46526309      -0.74862366       0.57861222
O       -0.47376168       0.45660974       1.44420291
C       -0.39791081       1.14332609       0.13099085
C        0.96560133       0.65988219      -0.39822398
C        0.91911004      -0.64625723      -0.08926610
H       -1.30746882      -0.20759458      -1.48842815
H       -2.38825811       0.16856848      -0.06131300
H       -0.77451432      -1.67224719       1.08047451
H       -0.63625022       2.21237225       0.16129526
H        1.73743095       1.25423982      -0.88001383
H        1.64146091      -1.44380033      -0.24166147
