17
Properties=species:S:1:pos:R:3 -1752.3260090104577=T 11.43601=T 12.46851=T -7.8469=T -5.8287=T -8.572=T 0.9057=T 0.0105=T 1.396=T 8.11647=T -0.7829=T 5.689965512=T 0.248842409=T pbc="F F F"
C        0.98623778       0.04504161       0.18006189
C        2.47756056      -0.00889494      -0.10878092
C        2.92419101      -1.26351939      -0.90223482
C        3.33029350      -0.68945368      -2.24266671
C        3.75740738      -1.51573036      -3.40929474
C        3.25048346       0.64693691      -2.15573880
O        2.83208951       1.15268575      -0.94871451
H        0.71381456       0.99890132       0.65138799
H        0.70248549      -0.77250227       0.85934308
H        0.41271165      -0.06171962      -0.75243261
H        3.05175995       0.11267922       0.82234539
H        2.10003260      -1.99343936      -0.99208193
H        3.76414120      -1.78993841      -0.41553837
H        4.02729563      -0.88711529      -4.26898211
H        2.95913941      -2.20498398      -3.73369598
H        4.63191838      -2.14193631      -3.16255246
H        3.47610791       1.40221882      -2.90795440
