19
Properties=species:S:1:pos:R:3 -1891.9531200173963=T 11.635389=T 13.04396=T -9.0484=T -7.0043=T -11.153=T 0.951=T 0.0507=T 3.073=T 10.44899=T -2.84948=T 8.995742237=T 10.9795678314=T 0.216912795=T pbc="F F F"
C        1.03625531      -0.09028644       0.05466840
C        2.54558529       0.08134898       0.02272066
C        3.10688646       1.21273239       0.89021663
C        4.52800484       0.71885146       1.17180755
C        4.32228992      -0.79300116       1.33853062
C        5.50606335      -1.65937179       0.93883575
O        3.17516920      -1.12563922       0.51559483
H        0.73605861      -0.96497477      -0.53837652
H        0.53921565       0.79595719      -0.36652646
H        0.68615041      -0.23596313       1.08724311
H        2.86958846       0.23583263      -1.02729368
H        2.52888460       1.29059775       1.82595227
H        3.07179488       2.18706992       0.38329302
H        5.18363135       0.91714304       0.30776078
H        4.98691951       1.17699118       2.05879356
H        4.05261442      -1.01233079       2.39097587
H        5.79156027      -1.46385684      -0.10554120
H        5.25417192      -2.72447741       1.03425411
H        6.37158552      -1.45220299       1.58591071
