18
Properties=species:S:1:pos:R:3 -1750.4095022786141=T 11.841692=T 12.50509=T -9.1699=T -7.0647=T -9.338=T 0.7175=T -0.4265=T 1.326=T 8.72656=T -0.69352=T 6.4618031592=T 0.420452197=T pbc="F F F"
N        1.93541706      -0.35287584       1.68725686
C        2.08613922      -0.10400883       0.23921986
C        3.37444881       0.67645019      -0.08320935
C        4.67775478      -0.08718631       0.04899974
C        5.36904166      -0.45339248      -1.04170148
C        5.20696524      -0.39877030       1.43647339
O        4.47468419      -1.40488874       2.13178902
H        1.13751990      -0.96801986       1.86078365
H        1.73693470       0.52477731       2.17574149
H        1.22864403       0.45224497      -0.18270517
H        2.12315485      -1.08169421      -0.26406104
H        3.40598500       1.57594953       0.56020166
H        3.28406622       1.04067178      -1.11828667
H        5.02056434      -0.22050697      -2.05150019
H        6.31021080      -1.00051788      -0.95729494
H        5.23886443       0.54607646       2.02226237
H        6.24130304      -0.76453252       1.35499123
H        3.52565173      -1.10021629       2.14532956
