14
Properties=species:S:1:pos:R:3 -1409.964624222222=T 9.441055=T 10.03242=T -9.6297=T -7.5676=T -10.727=T 1.0606=T -0.7278=T 0.157=T 10.29658=T 0.4339=T 5.339891041=T 6.3358829776=T 0.15354462=T pbc="F F F"
C        0.95641053      -0.03792319      -0.18282687
C        2.46539230      -0.01592436       0.01963268
O        3.03621466       0.24939508      -1.28164821
C        3.03776216      -1.27387265       0.69234244
O        4.08784363      -0.80544741       1.58967243
N        3.89869297       0.57227331       1.80388964
C        2.98071494       1.00644948       1.01223112
H        0.43583342      -0.18735287       0.77136997
H        0.67954773      -0.84859238      -0.87115305
H        0.62474583       0.91047860      -0.62485393
H        3.99739831       0.36495702      -1.16708698
H        3.48289833      -1.97469130      -0.02553554
H        2.27691944      -1.78367984       1.30451547
H        2.72112575       2.06475051       1.02083084
