13
Properties=species:S:1:pos:R:3 -1432.876451872799=T 9.99753=T 11.20281=T -12.0639=T -9.541=T -11.976=T 0.605=T -0.5879=T 1.138=T 11.80681=T -1.00849=T 5.3717058486=T 11.9774939496=T 0.205307576=T pbc="F F F"
N        3.48360644      -0.54829308      -2.88723794
C        3.65544768      -0.56094969      -1.73359277
C        3.89639077      -0.52989934      -0.29311826
C        4.53392927       0.79592521       0.16453095
C        5.92995463       1.04312321      -0.43845968
C        6.90263780       0.03844492      -0.01600445
N        7.64856579      -0.78427829       0.34080825
H        4.54540206      -1.37982965      -0.02802519
H        2.93727099      -0.68381110       0.22350557
H        4.60272185       0.78479580       1.26133637
H        3.88280795       1.63495691      -0.11812917
H        6.29994860       2.03419527      -0.13607265
H        5.87875616       1.04025983      -1.53906105
