14
Properties=species:S:1:pos:R:3 -1327.3997979371575=T 10.768176=T 11.84665=T -9.8101=T -7.9003=T -10.123=T 0.8061=T -0.2091=T -0.151=T 9.77089=T 0.666=T 4.975620173=T 10.9103464476=T 0.081872428=T pbc="F F F"
C        0.91745744       0.10081885       0.00547513
C        2.41899356       0.00932769      -0.00393742
N        3.15804570       0.94466739       0.85555416
C        4.27734077       0.09534638       1.26751789
S        3.24930963      -1.44198959       0.91230124
O        2.45043169      -1.80020589       2.10252552
O        3.88695650      -2.48080322       0.08798275
H        0.48287427      -0.65676829      -0.65928033
H        0.59628051       1.08944218      -0.35333714
H        0.52270125      -0.06083742       1.01862798
H        2.85203715      -0.00867751      -1.01637843
H        2.58125710       1.15188269       1.67710788
H        5.11282567       0.11488151       0.55486313
H        4.61329876       0.22183523       2.30191763
