15
Properties=species:S:1:pos:R:3 -1563.8682949943923=T 11.410974=T 11.56701=T -7.5699=T -5.5604=T -7.738=T 1.1326=T -0.4712=T 0.47=T 7.3555=T 0.18282=T 3.8934455678=T 6.7547944758=T 0.278108016=T pbc="F F F"
C        0.96342270       0.05371265       0.01848860
C        2.47124610       0.04343271      -0.00597558
C        3.22325656       1.16399563      -0.01051077
N        4.62967976       1.21418142      -0.05081102
C        5.21051191       0.05630322      -0.01776008
N        4.58622178      -1.15769752       0.04736919
C        3.13237496      -1.31626315      -0.05645276
H        0.55578725      -0.96735154      -0.00716884
H        0.54516974       0.59231678      -0.84537172
H        0.57214475       0.53676661       0.92692723
H        2.73783326       2.14457194       0.01806567
H        6.30511161       0.00292213      -0.02259305
H        5.16347594      -1.99181182       0.04210180
H        2.76337769      -1.95247280       0.77286398
H        2.85764601      -1.84639624      -0.99477265
