13
Properties=species:S:1:pos:R:3 -1353.6130377456307=T 12.538876=T 12.73094=T -7.8796=T -5.9932=T -7.855=T 0.9198=T -0.5578=T 0.009=T 7.41633=T 0.72242=T 3.7458402348=T 10.706997009=T 0.434007141=T pbc="F F F"
C        0.98733234      -0.03093874      -0.05763176
C        2.48463059       0.05295238      -0.03006682
C        3.20845713       1.22343983       0.11883128
N        2.73022749       2.51654894       0.35678891
S        4.92187942       0.86783987       0.13181386
C        4.52432517      -0.83043816      -0.09030445
N        3.24867664      -1.09050919      -0.14420375
H        0.53815361       0.79701306      -0.62935345
H        0.55225510      -0.01181706       0.95519459
H        0.68466928      -0.97187233      -0.53335271
H        3.23199600       3.24996833      -0.14229945
H        1.72943099       2.59578940       0.18137431
H        5.31922624      -1.56724633      -0.18517055
