17
Properties=species:S:1:pos:R:3 -1660.4500762942434=T 12.422689=T 12.93284=T -7.8388=T -6.001=T -8.676=T 1.0159=T 0.0009=T 0.922=T 8.07747=T -0.28795=T 4.804829458=T 5.253844757=T 0.261131785=T pbc="F F F"
C        1.42225112       2.47217750       0.33479300
C        2.86722151       2.16234754       0.56375038
N        3.46214099       1.25723404      -0.13905288
N        4.75726587       0.95607105       0.13700595
C        5.76934463       1.90792889       0.67259993
C        6.82876415       1.16880304      -0.18010042
C        5.64993281       0.53253312      -0.96261004
H        0.82006165       2.25665978       1.23304205
H        1.03484680       1.87224246      -0.49841676
H        1.27454819       3.53922186       0.10315912
H        3.39255748       2.71003229       1.36406804
H        5.88683006       1.90219851       1.76627332
H        5.57720898       2.94311934       0.32903665
H        7.51040590       1.79988300      -0.76034580
H        7.40434586       0.43629315       0.39825610
H        5.42919329       1.06091452      -1.90620426
H        5.67147071      -0.55223010      -1.14255437
