13
Properties=species:S:1:pos:R:3 -1483.7667432651508=T 10.307351=T 10.72097=T -9.094=T -7.1594=T -9.843=T -0.0155=T -1.7018=T -0.582=T 9.22452=T 1.15903=T 3.5422676214=T 11.5019084508=T 0.306862978=T pbc="F F F"
O        0.99904267      -0.09899496       0.05374322
C        2.20388334       0.10088742      -0.02233477
C        2.93295495       1.35776342       0.31090506
C        4.24157044       1.22452475       0.00718826
C        4.56222142      -0.14178690      -0.50134773
C        4.33144799      -1.24632718       0.51617665
C        3.25190465      -0.88813659      -0.49750472
H        2.44358849       2.22204243       0.75649707
H        5.00892802       1.98604003       0.15646433
H        5.31431417      -0.28556689      -1.27712014
H        4.84258946      -2.19818098       0.36296285
H        4.18495423      -0.95224554       1.55693338
H        2.98028016      -1.62405898      -1.25233347
