17
Properties=species:S:1:pos:R:3 -1695.547555926406=T 10.328407=T 11.51399=T -9.4786=T -7.3824=T -11.203=T 0.9809=T 0.0659=T 2.934=T 10.81664=T -2.59906=T 8.803563937=T 12.6027553476=T 0.128795226=T pbc="F F F"
C        1.19370204      -0.05381101       0.21406530
C        2.67500192       0.01443307      -0.14176536
C        2.92593460       0.17602047      -1.63802357
O        3.25748707       1.11274945       0.59867024
C        4.46868427       0.62730762       1.18668636
C        4.13533152      -0.83298892       1.44970914
O        3.36318397      -1.18261230       0.29600923
H        1.07481680      -0.23587504       1.28984816
H        0.70788383      -0.86590776      -0.34263938
H        0.70034451       0.89451336      -0.03802431
H        4.00064744       0.29286668      -1.82812200
H        2.39695068       1.05997889      -2.01796845
H        2.57004892      -0.71132688      -2.17852942
H        5.32193622       0.72463821       0.48910165
H        4.66745930       1.21600849       2.09251288
H        5.01069781      -1.49570876       1.48833005
H        3.54451910      -0.94801558       2.37781948
