15
Properties=species:S:1:pos:R:3 -1599.750633867644=T 13.516633=T 14.08106=T -8.4089=T -6.527=T -8.119=T 0.9556=T -0.4626=T 0.32=T 7.58105=T 0.28332=T 4.2978135082=T 6.3333164674=T 0.386556503=T pbc="F F F"
C        2.43213696      -0.66307194      -1.43699626
C        2.44967517      -0.04095150      -0.03090238
C        2.99427591       1.35802094       0.00565217
C        2.30875864       2.54891440       0.10876655
C        3.14726281       3.70106737       0.06606524
C        4.47681744       3.38419385      -0.07039587
S        4.70870975       1.66823122      -0.14591462
H        2.01229796      -1.67888778      -1.40853218
H        3.44749766      -0.72484979      -1.85387134
H        1.82532492      -0.05681996      -2.12445326
H        3.02781187      -0.68785140       0.64920675
H        1.42556394      -0.01040630       0.37325004
H        1.22447675       2.59097613       0.21668009
H        2.78242804       4.72504088       0.13742981
H        5.33451218       4.04826389      -0.12500474
