17
Properties=species:S:1:pos:R:3 -1745.7899482504683=T 11.380612=T 12.1479=T -9.3301=T -7.1033=T -9.116=T 0.9391=T -0.006=T 1.327=T 8.59331=T -0.69991=T 6.2387647438=T 0.359278622=T pbc="F F F"
C        0.89945337      -0.01707389      -0.08232771
C        2.42007690      -0.01808239       0.14928612
C        3.10431723       1.22335742      -0.44090673
O        3.21403846       1.13847464      -1.86639945
C        4.09513799       0.08558205      -2.25507709
C        3.85718341      -1.19628551      -1.51064676
C        3.07562966      -1.25083800      -0.42383087
H        0.42385989       0.82673802       0.43991134
H        0.43933801      -0.94592388       0.28478042
H        0.68014329       0.06909821      -1.15587823
H        2.60388305      -0.00708641       1.24024958
H        2.52182445       2.13449926      -0.24025294
H        4.11057007       1.34620478       0.00747803
H        5.15358176       0.40617984      -2.13076604
H        3.92991111      -0.05917295      -3.33485552
H        4.35102695      -2.09188155      -1.89793719
H        2.89106439      -2.20635963       0.07558303
