17
Properties=species:S:1:pos:R:3 -1684.7481887774275=T 11.972586=T 12.58556=T -7.7697=T -5.8444=T -8.638=T 0.8997=T -0.021=T 0.936=T 8.08556=T -0.25136=T 5.0819133708=T 12.3880983858=T 0.134210012=T pbc="F F F"
C        1.17701903       0.03450058      -0.07873859
N        2.47208409      -0.09525208       0.56912604
C        3.31678730      -1.21802316       0.10495995
C        4.71994551      -0.73446353       0.48005674
C        4.49293490       0.76623446       0.46005414
C        5.57427524       1.79005794       0.52273927
N        3.23690478       1.07645107       0.50131650
H        0.55969633      -0.83852251       0.17410343
H        1.25865520       0.10433344      -1.18318564
H        0.68287347       0.93790944       0.29755530
H        3.22611469      -1.33042852      -0.99687173
H        3.01528149      -2.15965009       0.58273145
H        5.50561644      -1.07254696      -0.20926532
H        5.00688229      -1.05436969       1.49878782
H        5.14387390       2.79854597       0.50490262
H        6.27388136       1.68457436      -0.32154361
H        6.17013399       1.67961928       1.44469163
