15
Properties=species:S:1:pos:R:3 -1470.0328400900346=T 9.895329=T 10.62746=T -9.6309=T -7.3248=T -9.506=T 1.1193=T 0.1098=T 1.377=T 8.98258=T -0.82208=T 6.6804152744=T 0.451249951=T pbc="F F F"
C        0.95632089      -0.08858133       0.02671412
C        2.48540939      -0.05975179       0.03111352
C        3.05531245       1.36882080      -0.03123564
C        4.55524201       1.40476546      -0.01995419
C        5.32296686       1.89089361      -1.00221937
H        0.57426034      -1.11859484       0.06990234
H        0.55291338       0.37862929      -0.88498173
H        0.54353562       0.45788277       0.88884399
H        2.87491787      -0.63529716      -0.82474206
H        2.86555623      -0.56259295       0.93691355
H        2.66954378       1.93672769       0.83582877
H        2.67930190       1.87930445      -0.93414862
H        5.03892711       0.97632411       0.86703743
H        4.88285970       2.32267630      -1.90545540
H        6.41210246       1.87674359      -0.93909672
