17
Properties=species:S:1:pos:R:3 -1601.3067215872088=T 11.506561=T 12.07217=T -8.1717=T -6.1858=T -9.845=T 0.9958=T 0.11=T 0.666=T 9.77946=T -0.08867=T 4.7584214982=T 6.5222711314=T 0.268599427=T pbc="F F F"
C        3.51378421       3.20495614      -4.12040463
O        2.78658572       2.57352657      -3.04300369
C        3.32464772       2.71420869      -1.81800809
N        4.40551744       3.36475163      -1.59429357
N        4.72653739       3.33208663      -0.16591224
C        4.76131950       4.72567711       0.29046835
C        6.06054719       2.73376996      -0.05003400
H        2.93554547       2.99021991      -5.02514717
H        4.52727035       2.78709074      -4.19332989
H        3.58896516       4.28754970      -3.94918327
H        2.73176233       2.20961633      -1.04457487
H        3.75922663       5.16541525       0.20119748
H        5.47507011       5.34509021      -0.29055349
H        5.05368756       4.73643585       1.34981892
H        6.02522077       1.69175401      -0.39379913
H        6.35412040       2.74179257       1.00895234
H        6.82293205       3.27879872      -0.64339304
