16
Properties=species:S:1:pos:R:3 -1607.018587791621=T 10.330531=T 11.25675=T -8.8252=T -6.7131=T -10.306=T 0.885=T -0.0496=T 2.944=T 9.63383=T -2.66473=T 8.2772185698=T 11.3373170358=T 0.071793529=T pbc="F F F"
O        0.99755497       0.07499183      -0.01460062
C        2.41951579      -0.01287148       0.00778509
C        3.01757962      -1.15021775       0.90448931
C        3.81874702      -0.26152643       1.87362085
C        4.49856084       0.75947492       0.92348976
C        3.01627479       1.18665375       0.76283518
N        2.76079449       0.77872342       2.20733525
H        0.65601934      -0.72565697      -0.44733277
H        2.81738268      -0.05008809      -1.02305508
H        3.64693035      -1.85929189       0.34901060
H        2.21733652      -1.69005755       1.42827583
H        4.33963479      -0.74663329       2.70940725
H        5.06144431       0.39698630       0.04536844
H        5.08253899       1.51321948       1.46969721
H        2.69803339       2.18526811       0.43987820
H        3.22729212       1.49067563       2.78686550
