19
Properties=species:S:1:pos:R:3 -1940.3612059233867=T 12.574007=T 13.68844=T -9.4629=T -7.2649=T -9.458=T 0.9789=T 0.0096=T 1.396=T 8.88832=T -0.79457=T 6.6475837816=T 0.441557388=T pbc="F F F"
C        0.80899020       0.03498010       0.09947974
C        2.14420563       0.07027565       0.19105947
C        3.00815990       1.29781014       0.18253849
C        2.30658367       2.66218197       0.13259130
C        3.43635996       3.64986253       0.46040870
C        4.30547481       2.92377692       1.52177400
C        3.91948459       1.42154744       1.43422008
H        0.26585521      -0.91085840       0.12238693
H        0.21195613       0.94361775      -0.00377207
H        2.68645688      -0.87870864       0.28537131
H        3.67279414       1.22904953      -0.70215550
H        1.52761388       2.70185916       0.91374888
H        1.82129032       2.86469706      -0.83328534
H        4.03036572       3.84163234      -0.44764495
H        3.06399868       4.62302457       0.81063641
H        5.37714296       3.08222578       1.33449284
H        4.10183618       3.31358923       2.52967230
H        4.79419595       0.75783980       1.37472355
H        3.34412520       1.11822706       2.32300387
