17
Properties=species:S:1:pos:R:3 -1671.600131263788=T 11.771082=T 12.73833=T -9.6189=T -7.6317=T -10.832=T 1.4643=T -0.1929=T 0.898=T 10.18864=T -0.35427=T 4.956402343=T 9.082222472=T 0.259454725=T pbc="F F F"
C        0.45124014       1.18221361       0.25067302
C        1.71463695       0.84276636      -0.54345344
C        2.97410018       1.34090823       0.12513021
C        4.19299892       1.72672176      -0.61717401
N        3.29972712       2.78864157      -0.07562837
C        3.80927082       3.43739231       1.09028054
N        3.51759294       4.62245020       1.44872294
H       -0.44869594       0.81259142      -0.25991370
H        0.35002614       2.26979784       0.37343178
H        0.47595147       0.72979537       1.25346561
H        1.65829507       1.27967444      -1.55251665
H        1.80088330      -0.24971459      -0.67193240
H        3.14181643       0.96622634       1.14353721
H        4.20803410       1.68053232      -1.70821614
H        5.16267555       1.58655203      -0.12943355
H        4.50880129       2.85136867       1.71801109
H        2.86700552       5.02986210       0.75643588
