8
Properties=species:S:1:pos:R:3 -1022.3842575961936=T 13.415926=T 12.2192=T -9.1998=T -7.2397=T -8.492=T -0.3266=T -1.9538=T 0.054=T 8.12457=T 0.35104=T 2.6647567064=T 6.9108432554=T 3.354865306=T pbc="F F F"
C        0.96492659       0.00000000       0.00000000
C        2.18802884       0.00000000       0.00000000
C        3.53727798       0.00000000       0.00000000
C        4.76970488       0.00000000       0.00000000
C        6.11895315       0.00000000       0.00000000
C        7.34205529       0.00000000       0.00000000
H       -0.10565595       0.00000000       0.00000000
H        8.41263922       0.00000000       0.00000000
