16
Properties=species:S:1:pos:R:3 -1619.7762416453409=T 10.295524=T 11.52755=T -9.6342=T -7.4337=T -10.826=T 1.074=T 0.2123=T 3.183=T 10.53901=T -2.77791=T 8.8431278696=T 10.917897195=T 0.582252027=T pbc="F F F"
C       -0.19296658       0.68980481       0.13834494
C       -0.46073887      -0.71041577      -0.36474936
C        0.95505654      -0.27310846      -0.07068322
C        1.74490765      -0.80071480       1.09212633
C        1.12767858      -1.63515504       2.18981865
C        2.08109751      -2.27148658       1.20416565
H       -0.30948437       1.52421233      -0.55386905
H       -0.47146426       0.90834970       1.17043306
H       -0.74445886      -0.83890391      -1.40972565
H       -0.94797741      -1.40698472       0.31872191
H        1.56638225      -0.08082530      -0.95800552
H        2.53224730      -0.11785922       1.42655305
H        0.07298537      -1.90325079       2.11585971
H        1.47458676      -1.46703314       3.20981107
H        3.07516268      -2.55685467       1.54964523
H        1.64920573      -2.93458444       0.45297320
