7
Properties=species:S:1:pos:R:3 -890.8125024045098=T 9.20999=T 9.25667=T -10.9567=T -8.9791=T -10.922=T -1.7011=T -3.6349=T -1.894=T 10.47618=T 2.3165=T 3.1896266402=T 10.5380412868=T 1.145403095=T pbc="F F F"
O        0.94750525      -0.07173907       0.00000000
C        2.16669942      -0.00914706       0.00000000
C        2.88948887       1.24230780       0.00000000
C        3.52918570       2.28473979       0.00000000
C        4.23302511       3.45079072       0.00000000
N        4.84359688       4.45392169       0.00000000
H        2.81310878      -0.91591387       0.00000000
