16
Properties=species:S:1:pos:R:3 -1571.4859227233444=T 9.912351=T 11.17175=T -9.2424=T -7.0306=T -10.922=T 0.953=T -0.0001=T 2.982=T 10.59365=T -2.68031=T 8.6764286926=T 11.1579092938=T 0.232796245=T pbc="F F F"
C        3.09380483      -1.19531342      -0.45569321
C        2.45241738       0.04212629       0.17975321
C        3.37324006       1.24484187       0.19707263
C        3.53379038       2.12662656      -1.04172278
C        2.84068630       2.65036876       0.18942105
O        3.38236420       3.68358851       0.98607264
H        2.39827201      -2.04673113      -0.46642661
H        3.99252959      -1.50474938       0.09918595
H        3.39824653      -0.99298584      -1.49349810
H        2.13626153      -0.18875418       1.21140699
H        1.53259352       0.30441780      -0.37053597
H        4.29378972       1.10668584       0.77627616
H        2.93130293       1.90173466      -1.92479166
H        4.53080038       2.51252135      -1.26405381
H        1.75657756       2.77385109       0.14165929
H        4.34913307       3.57374122       1.01123423
