17
Properties=species:S:1:pos:R:3 -1649.576413316023=T 11.021682=T 11.89545=T -9.0325=T -6.9914=T -10.023=T 0.8358=T -0.1155=T 0.962=T 9.30592=T -0.42967=T 5.2799190128=T 9.0288588976=T 0.198455151=T pbc="F F F"
C        1.43877060      -0.86894332       0.76013134
C        2.19629630      -1.04685855      -0.54810241
C        2.49870917      -2.50789381      -0.86798649
O        1.35438971      -0.46572365      -1.57847454
C        1.95192455      -0.04068274      -2.74704896
N        0.96755560       0.46739267      -3.57880688
N        3.18829068      -0.02078351      -3.08784463
H        1.24025439       0.19326850       0.95340890
H        2.02865008      -1.27275799       1.59444606
H        0.47852199      -1.40327728       0.72481145
H        3.13360407      -0.46423830      -0.49916477
H        1.56719962      -3.09207811      -0.88546340
H        3.16033442      -2.93560021      -0.10112226
H        2.99175991      -2.61039249      -1.84364978
H        0.04435224       0.06209365      -3.45507752
H        1.27205962       0.55965132      -4.54315042
H        3.80710706      -0.35399619      -2.34585569
