19
Properties=species:S:1:pos:R:3 -1809.9772365003914=T 11.846584=T 13.01928=T -8.6176=T -6.4798=T -10.097=T 0.921=T -0.0224=T 3.077=T 9.41152=T -2.79622=T 8.2007935994=T 11.9387731218=T 0.119268897=T pbc="F F F"
C        0.98753611       0.21200101       0.33638420
C        2.40962969      -0.15943550      -0.06359762
N        3.47842671       0.79162929       0.37323417
C        3.88206647      -0.12558403       1.47352322
C        3.07192167      -1.27055860       0.80377805
C        3.89780439      -2.28298971       0.02155620
N        4.57267769      -3.22058406       0.93508395
H        0.28182679      -0.58586187       0.05641049
H        0.66492532       1.13381004      -0.17235337
H        0.90522457       0.37142952       1.42302803
H        2.44821314      -0.34942200      -1.15232984
H        3.12486881       1.69973857       0.68442152
H        4.97435508      -0.26915862       1.54833145
H        3.50000787       0.14464239       2.47307646
H        2.38514950      -1.80466804       1.47654492
H        4.58407539      -1.73436833      -0.65587321
H        3.21859577      -2.87205384      -0.61782154
H        5.28015960      -2.71816120       1.47895141
H        5.08479542      -3.92198501       0.39481150
