14
Properties=species:S:1:pos:R:3 -1382.374888516972=T 8.655391=T 9.52578=T -9.9027=T -7.6485=T -11.622=T 0.8204=T -0.214=T 2.741=T 11.40202=T -2.54056=T 9.3614761398=T 13.7212330536=T 0.119017266=T pbc="F F F"
O        0.90561460       0.02189969       0.16679923
C        2.31998124      -0.02653504       0.01829680
C        3.05948833       1.05087707       0.83916015
C        4.12046330      -0.01449932       1.24068907
O        5.35585853       0.03911722       0.52580419
C        3.12246374      -1.11920553       0.78343151
H        0.51433451      -0.66062031      -0.40585691
H        2.59434049       0.00848008      -1.05269068
H        2.44282180       1.35042136       1.69906721
H        3.42170829       1.95024932       0.32248353
H        4.41220723      -0.03335170       2.29848752
H        5.15922458       0.10076986      -0.42596249
H        3.54594889      -1.95948768       0.21493863
H        2.53192447      -1.50508502       1.62712226
