13
Properties=species:S:1:pos:R:3 -1407.4053644576163=T 10.154724=T 11.23373=T -10.4226=T -8.0126=T -10.043=T 1.3573=T -0.1885=T 0.048=T 9.6682=T 0.58757=T 4.3903070642=T 10.9650862666=T 0.424057301=T pbc="F F F"
C        1.32069363      -0.43981892       0.75817798
C        2.57125450      -0.22713521      -0.05411415
O        2.73188667      -0.56488541      -1.20998431
O        3.52863151       0.39928635       0.70611760
C        4.81799632       0.59721740       0.05432689
C        5.79683416      -0.38039837       0.50329716
C        6.62842061      -1.18294867       0.87108261
H        1.12783170       0.40998874       1.42338363
H        1.45832293      -1.33179964       1.38650751
H        0.47540415      -0.60895021       0.08419255
H        5.13163748       1.61477607       0.32668919
H        4.67653212       0.53162483      -1.03462160
H        7.35892422      -1.89678696       1.19341495
