15
Properties=species:S:1:pos:R:3 -1466.5809877013912=T 11.88783=T 12.12875=T -8.8702=T -6.7497=T -9.335=T 1.3043=T -0.3831=T 0.676=T 8.88396=T -0.10546=T 4.9008194192=T 6.4342038756=T 0.346425907=T pbc="F F F"
N        1.58101561      -2.54687729       1.00178352
N        2.16166792      -1.31615563       1.11742772
C        2.31270409      -0.60789325       0.05468569
C        3.05660265       0.68220346       0.12921170
O        2.18821381       1.73542662      -0.34419595
C        2.74579485       2.97714188      -0.41883023
C        3.98903319       3.35668743      -0.08382669
H        1.15405392      -2.82896906       1.88104017
H        0.95809998      -2.67761903       0.19538590
H        1.92662302      -0.92628590      -0.92976073
H        3.95666147       0.65935601      -0.51436622
H        3.36628342       0.87482245       1.16921845
H        2.01088259       3.68413657      -0.81070299
H        4.74200611       2.68140088       0.31734986
H        4.26350736       4.40143485      -0.21396019
