14
Properties=species:S:1:pos:R:3 -1478.54753621495=T 11.076443=T 11.73288=T -9.2791=T -7.2441=T -9.712=T 0.3351=T -1.4246=T -0.249=T 9.23956=T 0.66472=T 5.0343771384=T 5.2692686154=T 0.251833508=T pbc="F F F"
C        0.95345901      -0.07980464      -1.15253621
C        1.97050618      -0.20720025      -0.03918182
O        1.62270749       0.77339323       0.97500904
C        2.41147295       0.85521181       2.08703061
C        2.17380816       1.77132059       3.04695080
C        3.50815444      -0.06581196       2.22192466
N        4.39759806      -0.81866671       2.32221385
H        1.18165853      -0.80726787      -1.94311683
H        0.97601534       0.92684949      -1.59076226
H       -0.06081564      -0.27824792      -0.78135803
H        2.99130958      -0.00599219      -0.40192567
H        1.95275579      -1.21368374       0.40884414
H        1.34501667       2.46990562       2.94751243
H        2.80988346       1.81266455       3.92611529
