21
Properties=species:S:1:pos:R:3 -2069.3986924386622=T 12.853748=T 14.52048=T -10.2567=T -8.0482=T -11.51=T 0.9638=T 0.1138=T 2.97=T 11.22292=T -2.70911=T 9.7646042202=T 0.12446884=T pbc="F F F"
C        2.25085889      -0.48910670      -1.53405546
C        2.44122059       0.01471958      -0.09986978
C        3.21391210       1.32475814      -0.02053790
C        2.56564090       2.63591451      -0.55049091
C        3.24362805       3.39201071       0.62259639
C        3.39929776       2.03077992       1.35696358
C        4.65010694       1.75850955       2.17709744
H        1.68735901      -1.43311942      -1.55910416
H        3.22073062      -0.66568346      -2.02466245
H        1.70024267       0.24348532      -2.14373576
H        2.96585670      -0.75400395       0.49457217
H        1.45476470       0.15310259       0.37831570
H        4.20839280       1.19819424      -0.48842200
H        1.47054025       2.60785254      -0.43050426
H        2.79982802       2.95586244      -1.57516165
H        4.22640383       3.79200635       0.32656682
H        2.67634414       4.18879091       1.12409816
H        2.49855088       1.84692021       1.97013488
H        5.55780544       1.93518347       1.57810342
H        4.68085426       0.71708063       2.53388317
H        4.70163145       2.41195239       3.06196258
