18
Properties=species:S:1:pos:R:3 -1790.4865127638277=T 12.819722=T 14.60895=T -9.1032=T -6.7871=T -9.202=T 0.8396=T -0.0577=T 2.496=T 8.77851=T -2.00962=T 4.1365945124=T 10.0358979868=T 0.455728799=T pbc="F F F"
C        0.92914559      -0.05121034       0.03245946
C        2.38503665      -0.02376871       0.01322582
C        3.60141755      -0.00588136      -0.00631414
C        5.06242026       0.02012204      -0.01532377
C        5.67148145       1.43673311      -0.02763652
C        5.35019139       2.22281764      -1.29707020
N        5.99552688       3.54605298      -1.25786862
H        0.51093469       0.96678053       0.03824368
H        0.55084418      -0.57114289       0.92559935
H        0.52797229      -0.57074718      -0.85090919
H        5.43069042      -0.54123291      -0.89245843
H        5.43537690      -0.52298382       0.86894262
H        6.76502485       1.35969537       0.07621083
H        5.30316996       1.99127605       0.85219980
H        4.25092861       2.25723933      -1.42877844
H        5.75793467       1.67969054      -2.16668790
H        5.56406023       4.11439856      -0.52314167
H        5.81834342       4.04215107      -2.13450269
