15
Properties=species:S:1:pos:R:3 -1532.098936830132=T 10.158465=T 10.89082=T -9.1978=T -7.1889=T -10.544=T 0.6864=T -0.3123=T 0.613=T 9.62712=T 0.06358=T 4.37174636=T 12.7820143064=T 0.264435254=T pbc="F F F"
N        0.97322239       0.03671214       0.04143277
C        2.43867000      -0.00719359      -0.00140950
C        3.06207221       1.14611429       0.82301589
N        4.32801143       0.57017810       1.25604847
C        4.34767128      -0.80729390       1.27034787
O        5.25445876      -1.50991141       1.69778226
C        3.01525956      -1.26221488       0.66459968
H        0.59292340      -0.77165027      -0.45786417
H        0.63221959       0.85983813      -0.46397431
H        2.85330248       0.05889308      -1.02758759
H        2.39985584       1.39126068       1.67260356
H        3.21905357       2.05440614       0.22201251
H        5.04510942       1.09274563       1.75163532
H        3.16667998      -2.11323831      -0.01069939
H        2.36140008      -1.58777583       1.49102662
