14
Properties=species:S:1:pos:R:3 -1473.02988561013=T 12.034037=T 12.50179=T -8.8751=T -6.7817=T -8.527=T 0.6974=T -0.8808=T 0.576=T 8.12263=T -0.0118=T 4.0924802936=T 5.9300272052=T 0.45385042=T pbc="F F F"
C        0.86218292      -0.24628969      -0.12922859
C        2.35901406      -0.02696990       0.14534861
C        2.75115717       1.41628555       0.09660845
C        3.31232366       2.09407954       1.12040179
C        3.67892732       3.46250561       1.07653201
C        4.00793022       4.63528628       1.08198676
H        0.61636569      -1.31745777      -0.12153549
H        0.57556962       0.15775427      -1.11139086
H        0.24577644       0.25331714       0.63139279
H        2.94103961      -0.57996430      -0.61387917
H        2.63244687      -0.45397532       1.12337263
H        2.55316617       1.95169394      -0.83865291
H        3.51079783       1.56959732       2.06256784
H        4.29384242       5.66684732       1.07332614
