17
Properties=species:S:1:pos:R:3 -1619.6786643584783=T 11.005585=T 11.66653=T -9.2748=T -7.2173=T -10.13=T 0.7284=T -0.2189=T 0.455=T 9.77587=T 0.15708=T 4.3653982768=T 5.862306052=T 0.200989153=T pbc="F F F"
C        1.28114901      -0.08349368       0.58656281
N        2.45277693       0.20985700      -0.24272651
C        2.75736803      -0.86841118      -1.18664433
N        2.35701710       1.46763143      -0.87912976
C        1.32277660       1.75977537      -1.86618958
C        3.28268126       2.41828382      -0.51320984
O        3.33710175       3.55846706      -0.96169881
H        1.10914977       0.75284070       1.27574276
H        1.49526490      -0.98356877       1.17912138
H        0.35627796      -0.26914734       0.00395771
H        2.97745207      -1.77774281      -0.61066365
H        3.64995694      -0.59969333      -1.76563867
H        1.92741846      -1.09828753      -1.88512744
H        1.40260559       1.09593972      -2.73948758
H        1.48416984       2.79605822      -2.18537332
H        0.31607545       1.66880700      -1.43208800
H        3.97744835       2.00418434       0.24932283
