15
Properties=species:S:1:pos:R:3 -1570.489442676947=T 11.179927=T 11.76946=T -8.5519=T -6.698=T -8.769=T 0.7831=T -0.1047=T 0.611=T 8.02474=T -0.02484=T 4.935324723=T 6.404310851=T 0.316127936=T pbc="F F F"
C        0.98726639       0.05284371      -0.00523577
N        2.43774043      -0.03358352      -0.00519231
N        3.16475661       1.11586704      -0.00782840
C        4.43979053       0.70144216      -0.00761557
C        4.53577624      -0.70430201      -0.00485004
C        3.21947915      -1.15922775      -0.00339947
C        2.66657836      -2.54936487      -0.00247882
H        0.73572512       1.11763881      -0.00114770
H        0.56130502      -0.42202985       0.88997432
H        0.56138758      -0.41534444      -0.90403444
H        5.23918069       1.43809285      -0.00920374
H        5.43226366      -1.31678505      -0.00383695
H        1.56969418      -2.55513288       0.02037832
H        3.01935229      -3.11401530       0.87283144
H        2.98221376      -3.10196891      -0.89965088
