18
Properties=species:S:1:pos:R:3 -1790.2273637233=T 11.590496=T 12.90632=T -9.294=T -7.1445=T -10.806=T 0.9455=T 0.0313=T 2.96=T 10.22075=T -2.60268=T 8.737665378=T 10.443278787=T 0.134038627=T pbc="F F F"
C        0.63332727       1.04492783      -0.31077035
N       -0.45118849       0.13370958       0.12214544
C        0.91281182      -0.40132984      -0.09498774
C        1.64324341      -0.91962406       1.11889308
C        1.45379529      -0.21702930       2.49307821
C        1.45781559      -1.61705281       3.16417304
C        1.13916783      -2.23801572       1.77866976
H        0.63024132       1.42579383      -1.33520245
H        0.94068715       1.76824326       0.44914443
H       -1.04472778      -0.09832622      -0.67952271
H        1.06832399      -0.99543597      -1.00411559
H        2.71706514      -1.00347475       0.87914595
H        0.45846075       0.24740984       2.54655283
H        2.21733569       0.50806222       2.80740451
H        2.46284939      -1.89811084       3.51177537
H        0.74156141      -1.79264443       3.97831533
H        1.63831159      -3.17744319       1.50232358
H        0.05430863      -2.34528941       1.63053732
