12
Properties=species:S:1:pos:R:3 -1322.5051434232287=T 11.361625=T 12.24264=T -8.4959=T -6.5127=T -8.583=T 1.3753=T -0.1503=T 0.099=T 8.09896=T 0.5375=T 3.6910384228=T 10.5759066112=T 0.380593613=T pbc="F F F"
C        0.95093243      -0.05642355      -0.00384526
C        2.42425767       0.09501193      -0.00481480
C        3.26902940       1.17549400      -0.00200627
Cl       2.78497122       2.84321437       0.00409081
C        4.61695783       0.69305029      -0.00502513
C        4.50990117      -0.66577268      -0.00946681
O        3.19129423      -1.04960006      -0.00952046
H        0.48491391       0.93586510       0.00907179
H        0.60574327      -0.61442700       0.87937722
H        0.60163231      -0.59290556      -0.89880031
H        5.52518210       1.28563783      -0.00386578
H        5.23471447      -1.47176466      -0.01276500
