16
Properties=species:S:1:pos:R:3 -1592.477634302302=T 11.169424=T 12.02119=T -8.1838=T -6.1383=T -8.237=T 0.9912=T 0.0359=T 2.036=T 7.84266=T -1.71405=T 5.2956652348=T 11.3382593294=T 0.10799701=T pbc="F F F"
C       -1.67366117       0.99343515       0.33199264
C       -1.34320662      -0.37134198      -0.24184601
C       -0.38335126      -1.36996497       0.51900432
C        0.93535287      -0.85983248      -0.11379092
N        2.14362087       0.00385454      -0.01771598
C        0.77925838       0.60511935       0.13970399
C       -0.51875146       0.89343078      -0.63522234
H       -2.59605393       1.46208158      -0.01717166
H       -1.44871788       1.19257806       1.38343235
H       -2.06464498      -0.80113333      -0.94050819
H       -0.43723209      -1.25456107       1.61154368
H       -0.62094316      -2.41432767       0.26561333
H        0.85537642      -1.06425150      -1.18832734
H        2.56443312       0.06839600       0.91959885
H        0.59729729       0.81400610       1.20202284
H       -0.56920641       1.34532147      -1.62652957
