10
Properties=species:S:1:pos:R:3 -1208.658927346095=T 12.365943=T 12.29079=T -9.2607=T -7.4737=T -8.839=T -0.3555=T -1.9453=T -0.935=T 8.30965=T 1.47088=T 3.9827774808=T 10.1178279356=T 0.301132977=T pbc="F F F"
N        0.82013665       0.20334078      -0.00993521
C        1.99042166       0.15297455      -0.00492793
C        3.39988689       0.08981697       0.00110140
C        4.30345837       1.14132919       0.00432687
C        5.64993212       0.70352926       0.01036100
C        5.76362747      -0.66979619       0.01171150
S        4.22783019      -1.45309611       0.00557651
H        3.98930173       2.18315868       0.00234112
H        6.50696894       1.37460052       0.01361345
H        6.66743597      -1.27284764       0.01593129
