21
Properties=species:S:1:pos:R:3 -2066.960734230377=T 13.273911=T 14.3446=T -9.4921=T -7.3322=T -9.397=T 0.8974=T 0.0218=T 1.407=T 8.80778=T -0.80097=T 6.6114542612=T 0.436712107=T pbc="F F F"
C        2.99283718      -0.81740519      -1.24896518
C        2.51739105       0.04073698      -0.07476274
C        3.01925346       1.51421756      -0.05977706
C        2.53793403       2.26720512      -1.30858158
C        2.43308886       2.20026473       1.19545342
C        4.52785338       1.51583722       0.07811994
C        5.42644379       2.07483412      -0.74071287
H        2.64309247      -1.85353447      -1.13513566
H        4.09070120      -0.83731657      -1.31291735
H        2.60932650      -0.44706719      -2.21068081
H        2.83064458      -0.43372378       0.87178469
H        1.41363519       0.06201065      -0.05421725
H        2.94443868       1.83753274      -2.23470395
H        2.83532014       3.32540732      -1.26859631
H        1.43984168       2.23014788      -1.37234097
H        2.76146169       1.69347988       2.11575736
H        1.33252914       2.17519278       1.16952841
H        2.75333139       3.25066149       1.25354517
H        4.89435784       0.99484749       0.97300793
H        5.13780374       2.60891002      -1.64831539
H        6.49442401       2.01666123      -0.52431983
