13
Properties=species:S:1:pos:R:3 -1444.643554352942=T 12.2041=T 12.73041=T -9.121=T -7.0266=T -8.756=T 0.4983=T -1.2353=T -0.155=T 8.35247=T 0.85014=T 3.6603642864=T 5.9307339254=T 0.397549307=T pbc="F F F"
O        2.53727836       0.12199629       1.88480152
C        2.20280806       1.00909395       1.12523175
C        3.09331714       1.64922128       0.07607134
C        4.51729062       1.20091220       0.08779634
C        5.56610729       2.04592781       0.01602440
C        6.92395163       1.64169225       0.01265756
C        8.10348068       1.34028219       0.00232210
H        1.15765984       1.41576267       1.13819321
H        2.99981779       2.74524222       0.16744317
H        2.60856433       1.40569076      -0.89220237
H        4.69679094       0.12617406       0.16648998
H        5.38504876       3.12558283      -0.04489544
H        9.13680456       1.05993149       0.00333643
