17
Properties=species:S:1:pos:R:3 -1666.430241299555=T 14.771322=T 14.00328=T -7.6511=T -5.8924=T -8.343=T 0.6408=T -0.9429=T -0.187=T 7.82324=T 0.68526=T 4.4927318988=T 0.611962655=T pbc="F F F"
C        2.86586379      -1.25799913      -1.87669659
C        2.14490164      -0.98449820      -0.56284346
N        2.36996024       0.39383959      -0.13090373
N        1.58962569       0.83348650       0.88060649
C        2.00807547       1.83570828       1.59496789
C        1.17886659       2.39131896       2.63656136
C        1.53999799       3.42502554       3.42482387
H        2.69451787      -2.29509882      -2.19453213
H        3.95360231      -1.12206170      -1.77484412
H        2.50944449      -0.58617050      -2.66953741
H        2.47098531      -1.70605357       0.21130345
H        1.05823953      -1.10338789      -0.67764542
H        3.36118703       0.67004295      -0.08788797
H        3.00265676       2.28839964       1.42033128
H        0.20329835       1.91296856       2.76452684
H        2.50843696       3.91789403       3.31069250
H        0.87756997       3.80470577       4.20205714
