11
Properties=species:S:1:pos:R:3 -1193.7772947052301=T 10.829795=T 11.36618=T -8.1089=T -6.1821=T -8.545=T 1.0983=T -0.202=T 0.016=T 7.9802=T 0.56106=T 3.8160287094=T 10.4736925528=T 0.393219659=T pbc="F F F"
N        0.91366456       0.01497459      -0.22397960
C        2.30164375       0.02976882      -0.07341586
C        3.17484797       1.08893545      -0.02257652
O        4.48104905       0.63940320       0.04329067
C        4.44053892      -0.72151828       0.03606720
C        3.14031626      -1.13815820      -0.03470863
Cl       2.56038593      -2.77276847      -0.05155229
H        0.44619689       0.82760284       0.17120130
H        0.49363101      -0.84649793       0.12284920
H        3.04344815       2.16408146      -0.03457307
H        5.38524752      -1.24856348       0.08713760
