17
Properties=species:S:1:pos:R:3 -1664.6646166200253=T 10.647265=T 11.96342=T -9.6933=T -7.5414=T -11.259=T 1.0544=T 0.1689=T 3.321=T 10.8321=T -3.08816=T 9.078750864=T 11.6988354146=T 0.309940152=T pbc="F F F"
C        1.27403858       2.70402683      -1.14032546
O        2.00826377       2.35264518       0.03683697
C        3.03403390       1.41899156      -0.21852440
O        4.10397871       1.93187265      -1.00010209
C        4.89644812       2.87003230      -0.29597079
C        5.99370114       2.35913438       0.60567983
C        6.31799830       2.98849377      -0.73965857
H        0.47888186       3.38950563      -0.82274766
H        0.81956619       1.80849807      -1.60209019
H        1.91495010       3.20285248      -1.88449329
H        2.65031160       0.55955287      -0.79739236
H        3.39431544       1.10213997       0.77422202
H        4.36258044       3.77612535       0.00408104
H        6.10915065       1.27706721       0.67725550
H        6.21873904       2.91270308       1.51764432
H        6.77105918       3.97952764      -0.76633002
H        6.63283297       2.31148103      -1.53384485
