14
Properties=species:S:1:pos:R:3 -1394.0593240735739=T 10.304383=T 10.83323=T -9.5424=T -7.344=T -10.867=T 1.0701=T -0.9566=T -0.033=T 10.00412=T 0.55049=T 3.68052441=T 6.6670867794=T 0.46148468=T pbc="F F F"
C        2.80313175       0.78531127       2.10456793
N        3.71774369       1.49264166       1.55396173
O        3.91253618       1.11916000       0.20868617
C        4.95140078       1.94290514      -0.35570363
C        4.48562747       3.37284085      -0.65015257
C        3.43392220       3.45148811      -1.73034903
O        3.45293233       4.25016449      -2.65022766
H        2.59749936       1.00336928       3.15262226
H        2.25019803      -0.00022114       1.57677539
H        5.24082083       1.41407682      -1.27524629
H        5.81339420       1.96004160       0.32800198
H        5.33692899       4.00807076      -0.93512542
H        4.05512488       3.78035876       0.28146889
H        2.60091930       2.70851243      -1.63771975
