15
Properties=species:S:1:pos:R:3 -1515.5703301712824=T 12.243018=T 12.8265=T -8.6795=T -6.8333=T -9.217=T 0.7193=T -0.9262=T 0.215=T 8.56306=T 0.32811=T 4.075667792=T 11.5426874462=T 0.204486977=T pbc="F F F"
C        1.12222428      -0.26470364      -0.54941275
N        2.27721868       0.15257825       0.25364004
C        2.96609844       1.35079827      -0.01774219
N        2.49052417       2.53513490      -0.20342430
C        1.07118457       2.78364433      -0.02884591
C        4.40107341       1.19499004      -0.03160707
C        5.60063635       1.00053535      -0.02130282
H        0.89245963      -1.30638193      -0.29399977
H        1.31720754      -0.20554539      -1.63394357
H        0.23356224       0.33577404      -0.32325824
H        2.93313275      -0.61142839       0.40434545
H        0.93017590       3.85596954       0.16543470
H        0.63524548       2.21454965       0.81198570
H        0.49288588       2.54494848      -0.93840389
H        6.66302068       0.86513651      -0.01839538
