16
Properties=species:S:1:pos:R:3 -1592.5615209580037=T 10.528895=T 12.01003=T -9.3354=T -7.208=T -10.865=T 0.8749=T -0.029=T 2.677=T 10.2783=T -2.33244=T 8.4518280536=T 11.2947898378=T 0.325885881=T pbc="F F F"
C        1.11511105      -0.08384866       0.01999919
C        2.61226761      -0.04645891      -0.16217528
N        3.23759955      -0.51826482      -1.41706333
C        3.24884496       0.92665617      -1.09727066
C        4.57483092       1.55661994      -0.80938801
C        5.82689734       0.78433444      -0.83289318
O        5.49710587       1.67810380      -1.91711446
H        0.80206698       0.56224176       0.85401153
H        0.77084614      -1.10518796       0.24153744
H        0.59673636       0.26173265      -0.88741934
H        3.19417752      -0.33402960       0.72085883
H        2.50815676      -0.70059303      -2.11493901
H        2.55838767       1.57066113      -1.65447277
H        4.53044496       2.45321165      -0.17642820
H        5.76807117      -0.27898448      -1.08126473
H        6.66561515       1.10504591      -0.20549804
