12
Properties=species:S:1:pos:R:3 -1360.0874253665886=T 11.036723=T 11.34659=T -9.9955=T -8.1123=T -10.637=T -1.3813=T -3.1202=T -1.74=T 10.16039=T 2.0781=T 3.270502708=T 4.9913415978=T 0.491248206=T pbc="F F F"
C        3.29514466      -1.32879111       0.38794008
C        2.51459477      -0.04533342       0.19452991
O        1.28708287      -0.02689079       0.18169942
C        3.24635659       1.23873170       0.01335587
C        4.59208412       1.35864080       0.00662770
C        5.25946729       2.60069296      -0.16866197
N        5.83647549       3.60876707      -0.31050777
H        3.93511044      -1.26997161       1.28061317
H        3.94667559      -1.52721884      -0.47581212
H        2.58822733      -2.15644421       0.50440000
H        2.60612676       2.11348438      -0.11899955
H        5.24077409       0.48892308       0.13824526
