21
Properties=species:S:1:pos:R:3 -2011.5848612939747=T 12.633156=T 14.65485=T -9.5038=T -7.3324=T -11.503=T 0.97=T 0.0581=T 3.141=T 10.77678=T -2.99389=T 9.311100628=T 11.2472908012=T 0.179130875=T pbc="F F F"
C        0.93416653      -0.03016513      -0.05901569
C        2.45727666       0.09064408       0.01079197
C        2.92284583       1.53850519      -0.03514779
O        4.34499999       1.57606952       0.03152836
C        4.85070649       2.90745250       0.02315090
C        6.37081429       2.86603396       0.07373218
C        6.98826599       4.26532543       0.07923766
H        0.61904275      -1.08200621      -0.01970342
H        0.53846916       0.39999081      -0.99185895
H        0.45008420       0.49265092       0.78013568
H        2.92291933      -0.45520046      -0.82510875
H        2.83512537      -0.36974026       0.93747728
H        2.48720232       2.10954122       0.81227790
H        2.57342056       2.02697756      -0.96981084
H        4.45096435       3.47061373       0.89341153
H        4.51025532       3.43821754      -0.89138121
H        6.73521717       2.29071180      -0.79211235
H        6.67712595       2.30945057       0.97366662
H        6.70983743       4.83191286      -0.82259510
H        8.08526297       4.21303843       0.11175324
H        6.65788733       4.84750592       0.95316078
