11
Properties=species:S:1:pos:R:3 -1284.4304780778402=T 9.941276=T 11.117=T -11.2639=T -9.038=T -11.287=T 1.1085=T -0.8002=T 0.705=T 10.9551=T -0.55403=T 5.2814564392=T 11.2797255388=T 0.447501565=T pbc="F F F"
N        1.00020532       0.06247026      -0.17265176
C        2.16430367       0.03081762      -0.08827171
C        3.59706570      -0.01353322      -0.00036129
C        4.39700659      -0.74397481      -1.05593206
C        4.41070552       0.76845052      -1.04684578
C        5.58099423       1.47327480      -0.60397606
N        6.53755587       2.03497763      -0.23964620
H        3.99667946      -0.01071243       1.01461712
H        3.84723064      -1.22158710      -1.86499954
H        5.29466931      -1.25862396      -0.71784612
H        3.83177370       1.27662071      -1.81917661
