18
Properties=species:S:1:pos:R:3 -1808.5330008284814=T 11.371215=T 12.4922=T -8.7689=T -6.7287=T -10.454=T 0.9502=T 0.0673=T 3.109=T 9.78557=T -2.83569=T 8.5190656614=T 11.9625660352=T 0.161945034=T pbc="F F F"
C        1.34879503       0.41739549       0.53863950
C        2.52812149      -0.12133285      -0.26026787
C        2.33273463      -1.54380398      -0.83781211
C        3.25014473      -1.56688260      -2.07461540
C        3.29588522      -0.11060503      -2.51536434
C        2.00443371       0.62868414      -2.57034474
N        2.89233561       0.77539134      -1.39441386
H        1.55767120       1.43272143       0.90263374
H        1.14271370      -0.22464301       1.40700221
H        0.43769494       0.45504548      -0.07817863
H        3.42267365      -0.12479927       0.38758778
H        1.28126458      -1.70408394      -1.12256515
H        2.58641757      -2.32305196      -0.10599708
H        4.26590330      -1.89332024      -1.80083568
H        2.88929886      -2.24317522      -2.86417798
H        4.14172936       0.22883222      -3.11899034
H        1.92081273       1.53064381      -3.18016520
H        1.07774970       0.05512419      -2.47654483
