16
Properties=species:S:1:pos:R:3 -1635.0898264949944=T 12.105188=T 12.51019=T -8.4015=T -6.4632=T -8.88=T 1.4108=T -0.2665=T 0.124=T 8.37983=T 0.54648=T 4.2770458532=T 4.9731652502=T 0.396144158=T pbc="F F F"
C        0.72884724       0.68239053      -0.12634614
C        2.00906782      -0.02851165       0.19329832
C        3.21904272       0.54597737       0.07442605
N        4.45330183      -0.05502278       0.35286952
C        4.51952088      -1.43402626       0.81710600
C        5.62625516       0.66106584       0.18928950
O        6.75247928       0.23352515       0.40456664
H        0.16957437       0.16499225      -0.92251634
H        0.91013492       1.71412043      -0.45915752
H        0.06204733       0.72346964       0.74999075
H        1.92882350      -1.06281589       0.53695550
H        3.31224105       1.58048527      -0.26809626
H        4.07502874      -2.10928665       0.07132186
H        3.97830292      -1.54337452       1.76846502
H        5.57654851      -1.68160819       0.96026668
H        5.42645373       1.69549946      -0.16843959
