18
Properties=species:S:1:pos:R:3 -1827.0969069289886=T 11.240678=T 12.14029=T -8.8092=T -6.814=T -10.172=T 0.9005=T -0.0549=T 3.07=T 9.38899=T -2.88461=T 8.3505438902=T 10.0767389752=T 0.123498914=T pbc="F F F"
C       -1.26013480      -0.78013627      -0.53720140
C       -1.26239380       0.77953894      -0.53203811
C       -0.00509700       1.09696559       0.32137008
C        1.25750917       0.78336266      -0.50846165
C        1.25975551      -0.77807729      -0.51264076
C       -0.00233920      -1.09964116       0.31479757
N        0.05789981      -0.00423346       1.32087835
H       -1.20537152      -1.20739834      -1.54987043
H       -2.16451830      -1.18582336      -0.05889680
H       -2.16760486       1.17935217      -0.05034047
H       -1.20962137       1.21374825      -1.54184814
H       -0.00717050       2.09130605       0.78767638
H        2.15235674       1.17896251      -0.00962721
H        1.20612029       1.21843461      -1.51649224
H        2.15538628      -1.17368914      -0.01520484
H        1.21035569      -1.20796684      -1.52299460
H       -0.00223246      -2.09670687       0.77522784
H       -0.79974969      -0.00698804       1.88610645
