11
Properties=species:S:1:pos:R:3 -1297.426385309214=T 13.875075=T 14.21793=T -9.6088=T -7.5464=T -9.09=T -0.8871=T -2.5524=T -1.047=T 8.66289=T 1.81212=T 2.6321979828=T 7.7134294306=T 0.66803113=T pbc="F F F"
C        1.04881941      -0.00827231       0.00006637
C        2.49458006       0.00343683       0.00008551
C        3.71930586       0.01782773       0.00009484
C        5.07058621       0.03536744       0.00010566
C        6.29957390       0.07415080       0.00011373
C        7.73190214       0.04506210       0.00012383
O        8.44471861       1.04359141      -0.00022070
H        0.64303388       1.01411267       0.01169424
H        0.66305892      -0.54029818       0.88271421
H        0.66315683      -0.51985623      -0.89463665
H        8.16862418      -0.98253226      -0.00014105
