19
Properties=species:S:1:pos:R:3 -1818.862351708704=T 11.121058=T 12.38417=T -9.8307=T -7.6446=T -11.629=T 0.8897=T -0.0395=T 2.806=T 10.95485=T -2.50118=T 9.225736267=T 11.8345628888=T 0.072501533=T pbc="F F F"
C        2.05405234      -0.55388928       1.05402567
O        3.30578488       0.12044448       1.07081289
C        3.28581540       1.40328262       0.41131054
C        2.60188055       2.47835928       1.25183601
C        4.75257837       1.71215197       0.05908743
C        5.65635881       1.93238095       1.27374764
O        5.26284533       0.66876130      -0.78158463
H        2.22582682      -1.55536445       1.46913477
H        1.66330784      -0.65226046       0.02397768
H        1.29578869      -0.04264517       1.67322720
H        2.74745920       1.28585195      -0.55073157
H        3.06534747       2.55686657       2.24475339
H        1.53365225       2.26003660       1.38693704
H        2.67517535       3.45590802       0.75279543
H        4.75595303       2.61955227      -0.56799126
H        5.62260477       1.06511403       1.94841369
H        5.36303875       2.82631673       1.84326452
H        6.69044397       2.06840394       0.93132324
H        5.02098620      -0.16214136      -0.32657970
