17
Properties=species:S:1:pos:R:3 -1619.1611124743192=T 10.714273=T 11.58333=T -8.9243=T -6.7364=T -10.48=T 0.8612=T -0.1525=T 2.853=T 9.79801=T -2.54534=T 8.2837774292=T 10.4805613772=T 0.063843115=T pbc="F F F"
N        1.87424460      -0.40457637      -1.27031345
C        2.31252137       0.07019035       0.04574188
C        3.28143211       1.23648713      -0.10352115
O        4.43380772       0.72627856      -0.76448825
C        2.62043017       2.52951573      -0.65580360
N        2.42089897       2.97519460       0.75233462
C        3.47962922       2.03740787       1.21508994
H        1.18780167      -1.15270403      -1.16191235
H        2.67510431      -0.80449530      -1.76510017
H        2.81504086      -0.69735495       0.67034107
H        1.43578631       0.43401868       0.60244900
H        5.01506030       1.47680778      -0.97738863
H        1.70445255       2.41090370      -1.25189617
H        3.35693735       3.13115127      -1.22524148
H        2.61802568       3.96284684       0.92327502
H        4.49824173       2.47026158       1.25134361
H        3.26935506       1.52794655       2.16982013
