12
Properties=species:S:1:pos:R:3 -1329.3983617253937=T 9.337453=T 9.76128=T -8.4062=T -6.3063=T -8.121=T 0.957=T 0.1058=T 0.61=T 7.68947=T -0.06158=T 4.479180229=T 6.8770322732=T 0.447405242=T pbc="F F F"
C        0.98133195      -0.04036933      -0.00728051
C        2.45958786       0.11052242       0.00058686
C        3.30463711       1.18825180       0.00309567
C        4.64248640       0.66970858       0.01042036
C        4.52351528      -0.68931932       0.01194278
O        3.19854760      -1.05344803       0.00594983
H        0.50803441       0.94882455       0.00015208
H        0.62908304      -0.59793036       0.87397712
H        0.63609727      -0.58106096      -0.90184115
H        3.00421624       2.23185301       0.00005756
H        5.57038810       1.23344779       0.01424120
H        5.23545473      -1.50704014       0.01705821
