17
Properties=species:S:1:pos:R:3 -1664.6758594696546=T 12.122525=T 12.82531=T -8.4698=T -6.3844=T -9.372=T 1.28=T -0.2899=T 1.271=T 8.96093=T -0.68031=T 6.547018737=T 0.437470025=T pbc="F F F"
N        0.98062610      -0.34978843       0.54605327
C        2.29462668       0.08123402       0.07696823
C        2.89783670       1.33442812       0.74252522
N        4.18464244       0.60800979       1.01889932
C        3.51783802      -0.70001576       0.64618389
C        4.26600785      -1.59548643      -0.27788142
C        4.65022647      -2.84526538       0.01395867
H        0.73119169      -1.24154835       0.10802768
H        0.26759944       0.32039692       0.24348438
H        2.38784556       0.15188290      -1.02621128
H        2.39190944       1.58944545       1.68758914
H        2.98536273       2.23823446       0.12229425
H        4.88359911       0.84549853       0.30778046
H        3.23981677      -1.23860491       1.56823563
H        4.51082921      -1.17397028      -1.26237099
H        4.43188220      -3.29194150       0.98712349
H        5.19380959      -3.46018916      -0.70474993
