13
Properties=species:S:1:pos:R:3 -1374.3324179157553=T 10.155346=T 10.31627=T -8.4628=T -6.4895=T -8.89=T 1.0133=T -0.6518=T 0.621=T 8.36434=T -0.07202=T 4.9361802264=T 5.7309056892=T 0.130252166=T pbc="F F F"
O        0.96466817       0.04489935      -0.05847886
C        2.38258473      -0.03840708       0.03433236
C        2.98369492      -1.27071451      -0.58965598
C        3.95944981      -0.88720064      -1.43025266
N        4.08726429       0.52175366      -1.48136330
C        3.06189637       1.10459661      -0.73894575
N        2.62792998       2.30763878      -0.66794517
H        0.77255559       1.00563719      -0.08746236
H        2.69956190       0.03129311       1.09751366
H        2.72913802      -2.29054201      -0.31983972
H        4.65166204      -1.49977140      -2.00434540
H        4.52342722       0.99792911      -2.26622255
H        3.13626696       2.95666781      -1.28121428
