16
Properties=species:S:1:pos:R:3 -1570.975208642383=T 10.6285=T 11.48002=T -8.4011=T -6.3766=T -8.976=T 0.9533=T 0.0531=T 1.296=T 8.52914=T -0.74151=T 6.072958266=T 0.326208739=T pbc="F F F"
C        1.66237229      -0.70118508      -0.92577982
C        2.96239891      -0.47646059      -0.13845429
C        3.15677179       0.95279746       0.28739196
C        4.20082870       1.69308959      -0.12219804
O        4.49343638       2.99487844       0.17737135
C        3.56956720       3.66351493       1.03635002
H        1.54306511      -1.75921471      -1.20220674
H        1.65354695      -0.10119935      -1.84735750
H        0.78368571      -0.40987275      -0.33029939
H        3.82423605      -0.79853122      -0.74585189
H        2.95471699      -1.13014073       0.75210662
H        2.39478409       1.38138924       0.94365940
H        4.97183135       1.28560613      -0.78185168
H        3.95777676       4.67940530       1.16948010
H        3.50298054       3.15904629       2.01496243
H        2.56533118       3.70520706       0.58190746
