12
Properties=species:S:1:pos:R:3 -1269.0302180632336=T 11.672027=T 11.84034=T -8.3281=T -6.4432=T -8.41=T 0.9626=T -0.6336=T -0.175=T 7.98595=T 0.85234=T 4.0250691054=T 10.066051382=T 0.402272782=T pbc="F F F"
C        3.02615589      -1.23308035       0.55216830
O        2.34305010      -0.00609990       0.26508451
C        3.10481775       1.10583739       0.16705282
C        2.63143978       2.37259654      -0.10262248
N        3.58306780       3.35804577      -0.15730235
C        4.77881543       2.88460947       0.06349033
S        4.85336007       1.15299903       0.36481911
H        2.25294519      -2.00761860       0.59173043
H        3.54310641      -1.17284063       1.52333911
H        3.75093470      -1.47048232      -0.24305503
H        1.58106278       2.60567261      -0.26580355
H        5.69547410       3.47081097       0.07222879
