12
Properties=species:S:1:pos:R:3 -1251.0862231731794=T 9.065942=T 9.36457=T -9.8436=T -7.6887=T -9.601=T 0.4524=T -1.2939=T 0.224=T 9.23759=T 0.35151=T 4.8802253446=T 11.6043084882=T 0.270937439=T pbc="F F F"
C        0.96959053       0.08245928      -0.00516804
C        2.45780503      -0.00799769      -0.00042875
N        3.22110973       1.04227389      -0.00389622
N        4.60363649       0.61545084       0.00101325
C        4.62857372      -0.67720842       0.00779690
C        3.26188326      -1.27765852       0.00805599
H        0.66187260       1.13442358      -0.00249016
H        0.53984204      -0.41839835       0.87569248
H        0.54666790      -0.41105616      -0.89356459
H        5.57474675      -1.22100156       0.01268253
H        3.06996713      -1.91310952      -0.87246504
H        3.06627483      -1.90291736       0.89508164
