19
Properties=species:S:1:pos:R:3 -1870.6254430598053=T 11.709236=T 13.32236=T -9.0424=T -6.8854=T -10.738=T 0.9025=T -0.0249=T 2.983=T 10.40591=T -2.64802=T 8.5336960094=T 10.5415004962=T 0.234254657=T pbc="F F F"
C        2.99058539      -1.09381048      -0.69372865
C        2.39456567       0.11477299       0.03638568
C        3.33428147       1.30366411       0.08977856
C        3.46529589       2.33840009      -1.04175351
C        2.65955440       2.28728186      -2.32198035
C        2.83921117       2.71301758       0.27630238
O        3.42026916       3.62992111       1.18397976
H        2.29186152      -1.94299561      -0.69832687
H        3.92021978      -1.42953292      -0.20930305
H        3.23170541      -0.84833133      -1.73839540
H        2.12873222      -0.17090286       1.06858746
H        1.44804227       0.40736151      -0.44589155
H        4.28638021       1.08809448       0.59006432
H        4.48850417       2.70693646      -1.17405186
H        1.63233515       1.93854968      -2.14566512
H        3.11604675       1.61276397      -3.06305778
H        2.59131316       3.28715268      -2.77690492
H        1.75513308       2.85577501       0.28031723
H        4.38200312       3.48071164       1.18960368
