12
Properties=species:S:1:pos:R:3 -1303.3104894876117=T 11.754165=T 12.1761=T -8.1216=T -6.272=T -8.998=T 0.631=T -0.4129=T 0.085=T 8.52151=T 0.63608=T 4.4262506056=T 11.0545049698=T 0.289793856=T pbc="F F F"
C        0.97376416      -0.02520779      -0.00827595
C        2.46121284       0.10347117      -0.00094493
C        3.20292489       1.23735585       0.00339572
S        4.92859569       0.91113650       0.01152515
C        4.63071379      -0.88671754       0.00938495
O        5.47247729      -1.76673324       0.01352885
N        3.25209070      -1.04568625       0.00206693
H        0.51009649       0.96815762      -0.00395640
H        0.61305445      -0.57313803       0.87630293
H        0.62054043      -0.56208017      -0.90262083
H        2.82550047       2.25469200       0.00227296
H        2.87156879      -1.98893011       0.00006062
