17
Properties=species:S:1:pos:R:3 -1680.423441266987=T 12.680213=T 13.08974=T -8.1967=T -6.3639=T -9.066=T 0.5646=T -1.0768=T 0.098=T 8.28463=T 0.34932=T 4.2679452808=T 6.0223471808=T 0.311530037=T pbc="F F F"
C        1.16559957       1.16782078       1.82901886
N        1.73151641       2.39789689       1.29667586
C        2.97942601       2.36625406       0.68701060
C        3.41495045       3.64401428       0.07245211
C        3.04240231       4.86673374       0.48107015
N        3.67222501       1.27372796       0.72494360
C        5.02946970       1.27775324       0.20080873
H        0.18794971       1.39468785       2.27217980
H        1.82981574       0.76517278       2.60435226
H        1.05138841       0.38629835       1.05830867
H        1.07277662       3.04538482       0.87294433
H        4.11592936       3.54986371      -0.76076954
H        2.38566694       5.00730064       1.34216692
H        3.40869372       5.76509457      -0.01800714
H        5.49267748       0.30441709       0.41394928
H        5.67083108       2.05677890       0.64968967
H        5.05891148       1.41431035      -0.89717417
