14
Properties=species:S:1:pos:R:3 -1433.0988176812198=T 11.042231=T 11.2697=T -8.1594=T -6.2139=T -9.058=T 0.7464=T -0.1637=T -0.044=T 8.66729=T 0.66736=T 4.2892832714=T 5.0436140954=T 0.407821804=T pbc="F F F"
C        3.59152734      -1.22315177       0.02353552
O        2.62613452      -0.17376470       0.09441990
C        3.11413734       1.09926531       0.01298486
C        4.40084066       1.47437397      -0.12670158
N        4.79899669       2.81913403      -0.20092119
C        6.09322731       3.25131157      -0.34230982
O        6.42771872       4.42794022      -0.40642263
H        3.02940623      -2.15963229       0.10480657
H        4.31464879      -1.15176761       0.85394194
H        4.13285576      -1.19808483      -0.93766821
H        2.30108296       1.82542369       0.07708313
H        5.22099095       0.76093988      -0.19187294
H        4.09395086       3.55503988      -0.14904987
H        6.81466186       2.40289266      -0.39290567
