16
Properties=species:S:1:pos:R:3 -1644.156981100719=T 13.558362=T 14.32962=T -8.8473=T -6.8106=T -8.557=T 0.6938=T -0.9059=T 0.546=T 8.14567=T 0.02571=T 4.0915627972=T 11.4204000544=T 0.485686782=T pbc="F F F"
N        0.91458944      -0.14121227       0.02052088
C        2.38404142      -0.16557541      -0.00563438
C        2.93748013       1.26454656      -0.12040005
C        4.42716791       1.32137890      -0.01060434
C        5.25074780       1.78801365      -0.97317915
C        6.66311709       1.84335772      -0.86922198
C        7.87838622       1.90889143      -0.82003702
H        0.55436770      -1.08737229       0.16312466
H        0.55679607       0.16233365      -0.88955865
H        2.81838795      -0.78056193      -0.81915317
H        2.72862128      -0.60688066       0.94394265
H        2.47711205       1.86021199       0.68735766
H        2.61323419       1.71260856      -1.07499104
H        4.87049545       0.94956642       0.91965599
H        4.81964335       2.16193375      -1.90936205
H        8.94586196       1.96902993      -0.76580002
