13
Properties=species:S:1:pos:R:3 -1414.5666004581292=T 8.634286=T 9.63694=T -9.3105=T -7.1793=T -10.797=T 0.9695=T 0.0847=T 2.867=T 10.51745=T -2.58788=T 8.378415943=T 10.8852764784=T 0.139836258=T pbc="F F F"
C        0.55004437       1.25121983       0.67959840
C       -0.88666720       0.81257779       0.45196822
C       -0.82174379       0.01437800      -0.85087460
O        0.53233935       0.00757514      -1.30166332
C        1.15848667       0.01159303      -0.00757127
O        0.55089972      -1.08824625       0.69106149
C       -0.80940179      -0.71458284       0.47482447
H        0.81341572       2.17876386       0.15560842
H        0.82830748       1.30809257       1.73959911
H       -1.76128850       1.37490583       0.76922215
H       -1.57503244      -0.04127989      -1.63128398
H        2.24015564      -0.11814518      -0.08897291
H       -1.55191523      -1.40918187       0.85665384
