14
Properties=species:S:1:pos:R:3 -1407.1438004559486=T 10.263721=T 10.68522=T -9.6508=T -7.5395=T -11.001=T -0.5122=T -2.4417=T -1.624=T 10.37546=T 1.95069=T 3.0654422626=T 5.352227648=T 0.262003204=T pbc="F F F"
C        1.18265370      -0.55961498       0.26568950
C        2.40760958       0.28597058      -0.11791616
C        2.16279281       1.76425417       0.02589389
C        2.16323231       2.36930666       1.38906353
O        2.41776487       1.71454299       2.39149539
N        1.96106760       2.43064795      -1.07063260
O        1.72091741       3.80068980      -0.86352833
H        1.40912263      -1.62885758       0.15216632
H        0.32594574      -0.32231657      -0.38105329
H        0.89085974      -0.38541529       1.30992431
H        2.69644750       0.08849273      -1.15926962
H        3.25532954       0.01687290       0.53042315
H        1.92703619       3.45238921       1.44908770
H        1.60172037       4.11688745      -1.77668379
