10
Properties=species:S:1:pos:R:3 -1181.3092344826023=T 10.6353=T 10.58662=T -9.376=T -7.4237=T -9.016=T -0.0409=T -1.7135=T -0.729=T 8.42567=T 1.19914=T 4.063331185=T 11.2519402762=T 0.524898828=T pbc="F F F"
C        0.94992849      -0.07182851      -0.00278623
C        2.16247753       0.01051813       0.00016134
C        3.56505454       0.11275247       0.00341186
C        4.42230434       1.18886250       0.00310057
C        5.70767650       0.59503396       0.00767172
N        5.65608380      -0.72539757       0.01077342
O        4.29415853      -1.04831555       0.00797700
H       -0.11841761      -0.14694418      -0.00535507
H        4.15609234       2.23928604      -0.00002675
H        6.68165154       1.07944271       0.00903214
