19
Properties=species:S:1:pos:R:3 -1813.8355008323829=T 11.855818=T 12.76938=T -8.4323=T -6.3628=T -9.919=T 0.8061=T -0.1491=T 2.842=T 9.42534=T -2.50065=T 7.8606256098=T 10.7733791134=T 0.068396575=T pbc="F F F"
C        0.92791549       0.04033332       0.15838524
C        2.43411755      -0.02314911      -0.04899411
C        2.79310564       0.01945977      -1.53254285
N        3.21645440       1.03928937       0.69423395
C        4.14102880      -0.01081705       1.23982596
C        3.20250336      -1.13925501       0.77105820
N        3.81921806      -2.31662903       0.19086578
H        0.67050618      -0.02042524       1.22747172
H        0.42379799      -0.79130694      -0.35820029
H        0.51426115       0.97965370      -0.24165510
H        3.88268202       0.02951527      -1.68195719
H        2.39554919       0.93955736      -1.98495584
H        2.37442896      -0.84375215      -2.07285753
H        2.63801940       1.40754590       1.45518077
H        5.10219921      -0.00380869       0.69764482
H        4.35544594       0.05140327       2.31657776
H        2.55774427      -1.47295924       1.60119472
H        4.34206574      -2.07526098      -0.65471873
H        3.11932666      -3.01265453      -0.07365727
