19
Properties=species:S:1:pos:R:3 -1894.7593056831472=T 11.790164=T 13.27695=T -9.2258=T -7.2109=T -10.607=T 1.2519=T -0.5472=T 0.256=T 9.62273=T 0.47896=T 3.7340739634=T 8.0623012374=T 0.165082508=T pbc="F F F"
C        0.88331371      -0.02917792       0.03953330
C        2.39019306      -0.16178351      -0.21103983
C        2.66778050      -0.98178426      -1.47713067
C        3.04786271       1.22188090      -0.28425904
C        4.56804708       1.24049212      -0.16731124
C        5.23298528       2.59640458      -0.32653940
O        5.22177781       0.23524206       0.07403395
H        0.67316981       0.52418029       0.96749890
H        0.41140014      -1.01926493       0.12467565
H        0.38779054       0.50333131      -0.78878889
H        2.84492883      -0.69297455       0.64242293
H        2.25471332      -0.47755676      -2.36673668
H        2.19754617      -1.97402719      -1.41062529
H        3.74519834      -1.12849443      -1.62856930
H        2.66682289       1.87575198       0.52299153
H        2.76475811       1.74023556      -1.21958954
H        4.85672868       3.12685002      -1.21305419
H        6.31995911       2.47385968      -0.38940923
H        4.99420390       3.22468505       0.54622705
