15
Properties=species:S:1:pos:R:3 -1469.788936482156=T 9.254424=T 10.28515=T -9.8906=T -7.5929=T -11.039=T 1.0364=T 0.1704=T 3.297=T 10.68272=T -3.06262=T 9.1022214138=T 11.1081413134=T 0.250499554=T pbc="F F F"
C        1.00794777       0.00143591      -0.06116905
C        2.51929900      -0.00356813      -0.02089022
C        3.31122606      -0.70556320      -1.10418495
C        3.32639436       0.80572654      -1.00955071
C        4.58156856       1.53131967      -0.58076579
H        0.59256870       0.85751965       0.49288542
H        0.59101457      -0.91784492       0.37872461
H        0.64303954       0.06706263      -1.09747007
H        2.95041959      -0.06511602       0.98364229
H        2.75278153      -1.16764216      -1.92063514
H        4.21942214      -1.23956359      -0.81783478
H        2.73462215       1.32486071      -1.77048042
H        5.12182680       0.95992243       0.18941389
H        4.35061976       2.52209668      -0.15938478
H        5.27000947       1.67842380      -1.42752032
