16
Properties=species:S:1:pos:R:3 -1593.3575621453067=T 11.256865=T 12.15699=T -9.4095=T -7.2928=T -9.845=T 0.8376=T -0.1078=T 2.111=T 9.47744=T -1.69808=T 4.3242721206=T 10.9738644754=T 0.227922698=T pbc="F F F"
C        0.96875033      -0.01861759      -0.01872544
C        2.50522459      -0.00872170       0.02373636
N        2.96390886      -0.74683489       1.21771304
C        3.06229967      -0.75177945      -1.21749896
O        4.48608896      -0.76582744      -1.25836370
C        3.01381934       1.37819887      -0.01361174
C        3.49293009       2.49618320      -0.04538115
H        0.59540634       0.50151070      -0.91123556
H        0.55753761       0.48520514       0.86658411
H        0.61515741      -1.05862542      -0.02151451
H        2.78858957      -0.18607949       2.05547687
H        3.98029880      -0.86242236       1.14817606
H        2.63310593      -0.30075681      -2.12973521
H        2.74661533      -1.80286234      -1.15008571
H        4.77452414       0.16535621      -1.32342414
H        3.89021302       3.49111338      -0.04957030
