17
Properties=species:S:1:pos:R:3 -1657.7887575920681=T 12.969382=T 13.25231=T -8.3684=T -6.4627=T -9.205=T 1.4443=T -0.2663=T 0.634=T 8.60028=T -0.08971=T 4.7673980846=T 5.4134271376=T 0.392383847=T pbc="F F F"
C        0.91435959       0.15547995       0.49942035
C        2.33178333       0.13242513      -0.08224098
N        2.30305736      -0.36287925      -1.47364518
N        1.80251213      -1.61624265      -1.63842039
C        2.16220004      -2.29574473      -2.67033376
C        2.93762552       1.51077862      -0.10039116
C        4.04652476       1.85778252       0.56086412
H        0.94792720       0.46837976       1.55117843
H        0.46555773      -0.84324562       0.43437460
H        0.28063743       0.85817722      -0.06079032
H        2.96598539      -0.52473906       0.54558227
H        3.18047671      -0.17685453      -1.97907833
H        1.70793913      -3.27634532      -2.81350286
H        2.88945122      -1.92955141      -3.41472375
H        2.39480748       2.25533228      -0.69438749
H        4.60273711       1.13033850       1.15781641
H        4.43014788       2.87876860       0.53886803
