17
Properties=species:S:1:pos:R:3 -1756.7923527406576=T 11.331493=T 12.13675=T -9.2127=T -6.9931=T -9.127=T 0.9031=T -0.103=T 1.339=T 8.6034=T -0.70749=T 6.2376488698=T 0.350764871=T pbc="F F F"
O        1.22245049      -0.05152673       0.85412911
C        2.46814355       0.04104682       0.14290454
C        2.49360802       1.20816969      -0.84622162
C        3.84858864       1.28576241      -1.56454958
C        4.30920619      -0.06797113      -2.03656970
C        3.76769071      -1.21754112      -1.60712627
C        2.66260163      -1.28689653      -0.58650094
H        1.10376324       0.77798746       1.34870971
H        3.30225981       0.17008032       0.86309148
H        2.28506677       2.15464405      -0.31960063
H        1.68394769       1.05764827      -1.57969619
H        4.61321759       1.72143391      -0.89409529
H        3.78351372       1.97891940      -2.41950833
H        5.12420428      -0.09548132      -2.76557048
H        4.13776975      -2.16767600      -2.00268706
H        1.70732668      -1.56179054      -1.07063850
H        2.86699123      -2.08455896       0.14613974
