14
Properties=species:S:1:pos:R:3 -1374.0853867718672=T 12.409398=T 11.57999=T -7.933=T -5.9914=T -8.402=T 0.7633=T -0.7968=T -0.109=T 7.97494=T 0.64078=T 4.65195472=T 0.566518581=T pbc="F F F"
C        0.93798875      -0.00523784      -0.07773763
C        2.42328844       0.01354877       0.08956147
C        3.19146182       1.12378158       0.06378091
C        4.62597468       1.11697772       0.22851176
N        5.30542426       2.21966598       0.18424208
N        6.65068812       2.14618174       0.42591771
H        0.63941221      -0.62581630      -0.93889136
H        0.53454461       1.00557993      -0.22821619
H        0.44279046      -0.44432502       0.80419401
H        2.91110451      -0.95621692       0.24758584
H        2.73473337       2.10734014      -0.08924163
H        5.12494522       0.14283027       0.39507415
H        7.13837112       2.92323470      -0.01445568
H        7.09462242       1.24063525       0.22603456
