9
Properties=species:S:1:pos:R:3 -1111.6501160758244=T 9.254003=T 9.35905=T -10.0459=T -8.0218=T -9.294=T -0.2335=T -2.0069=T -0.921=T 8.88191=T 1.37972=T 4.255261513=T 9.448663095=T 0.33613706=T pbc="F F F"
N        0.95153716      -0.09876753      -0.00417768
C        2.12067080      -0.05103897      -0.00122228
C        3.52492074       0.05749896       0.00216361
C        4.38839006       1.12425754       0.00074040
N        5.68824116       0.65674934       0.00586032
C        5.56712564      -0.64121555       0.01009538
O        4.28495745      -1.10044379       0.00825559
H        4.14654813       2.18206174      -0.00360463
H        6.34958885      -1.39374175       0.01484928
