16
Properties=species:S:1:pos:R:3 -1543.5484918524612=T 10.716021=T 11.63231=T -9.7609=T -7.6887=T -11.078=T 1.4512=T -0.1969=T 0.075=T 10.24964=T 0.45957=T 4.2291252642=T 6.5067728814=T 0.215828416=T pbc="F F F"
C        0.97809491      -0.55866155      -0.01254939
C        2.44229107      -0.11299234      -0.00819161
C        2.56907974       1.39659231       0.09920611
O        3.98522160       1.71415671       0.09064793
N        4.16551017       3.10896415       0.19145155
C        4.85613148       3.57476321       1.28907179
O        5.36011427       4.68695571       1.34447889
H        0.90399114      -1.65166707      -0.08922500
H        0.42815477      -0.12764197      -0.86248652
H        0.46137573      -0.25413139       0.90976720
H        2.94532595      -0.44894049      -0.92850755
H        2.97873759      -0.57598107       0.83495136
H        2.11849279       1.77554333       1.03274518
H        2.07748753       1.90053980      -0.75219761
H        4.36196150       3.55313830      -0.71024798
H        4.84884976       2.83284236       2.11877566
