18
Properties=species:S:1:pos:R:3 -1751.4789060116602=T 11.102544=T 12.2118=T -8.9359=T -6.7814=T -10.234=T 0.8828=T -0.0512=T 3.078=T 9.4862=T -2.80233=T 8.08760678=T 12.0123712114=T 0.158824694=T pbc="F F F"
C        2.10294978      -0.31334913      -1.54318686
N        2.31160076       0.15178347      -0.17087531
C        3.08260584       1.39102436      -0.09368643
C        2.29433618       2.63955495      -0.52411862
C        3.04817914       3.75773636       0.19415657
O        3.58217516       3.18242015       1.40725287
C        3.43982125       1.75467478       1.35422837
H        1.62500243      -1.30221181      -1.52366120
H        3.03549565      -0.38648647      -2.14219155
H        1.42070757       0.37154544      -2.06831137
H        2.80994285      -0.57622582       0.34767671
H        4.01725925       1.33852920      -0.69774193
H        1.26273410       2.54725391      -0.14972312
H        2.26515560       2.78835122      -1.61202299
H        3.88447175       4.14086492      -0.41956118
H        2.40305690       4.60747556       0.46558411
H        4.38495439       1.29928313       1.69155162
H        2.62343140       1.42524578       2.02525031
