20
Properties=species:S:1:pos:R:3 -1928.840805651027=T 13.269434=T 14.24035=T -8.2558=T -6.3328=T -9.506=T 1.5612=T 0.0678=T 1.38=T 8.9851=T -0.80872=T 6.6738688136=T 0.422571507=T pbc="F F F"
C        2.81379471      -1.46364395       0.72898459
C        2.25864513      -0.14008254       1.25015249
N        2.97610587       1.04300605       0.75795625
C        2.20905407       2.25669983       1.03022484
C        4.32771467       1.14667309       1.32237531
C        5.17255824       2.16623922       0.61160170
C        5.88060167       3.12703047       1.21503105
H        2.15805368      -2.28999897       1.03848852
H        3.81732076      -1.68528230       1.11873266
H        2.86616244      -1.45359002      -0.36904199
H        2.22314391      -0.15621223       2.36507153
H        1.21543032      -0.03886148       0.91064337
H        1.22995075       2.19314762       0.53412456
H        2.74120742       3.13186188       0.63347803
H        2.03879930       2.42482432       2.11822712
H        4.81451628       0.16469785       1.20605866
H        4.30574851       1.36915602       2.41532395
H        5.20056653       2.06813261      -0.47938721
H        5.86013875       3.25168483       2.30107628
H        6.50880702       3.81558771       0.64790828
