16
Properties=species:S:1:pos:R:3 -1603.8992298310525=T 10.189771=T 11.25904=T -10.0132=T -7.9306=T -11.34=T 0.8427=T -0.1296=T 0.38=T 10.29944=T 0.17248=T 4.8628177102=T 12.312677702=T 0.127174258=T pbc="F F F"
C        0.68134122      -1.02011167      -0.32883901
C        2.01923693      -0.35122471      -0.04238628
C        3.14860045      -0.84594371      -0.93192690
O        1.90682587       1.08989548      -0.29032456
C        1.46751964       1.84083846       0.76643000
N        1.45217973       3.17039065       0.41218792
O        1.17401957       1.41080345       1.87169674
H       -0.09894648      -0.62306514       0.33313329
H        0.75762168      -2.10315591      -0.15512366
H        0.38318877      -0.85822662      -1.37518302
H        2.27526608      -0.47500522       1.02025433
H        2.91172521      -0.68352080      -1.99357751
H        3.30206027      -1.92264624      -0.77495804
H        4.08702253      -0.32514781      -0.69971844
H        1.47389022       3.40443500      -0.57467210
H        0.92663830       3.77914478       1.02886723
