13
Properties=species:S:1:pos:R:3 -1377.2655994455497=T 9.346741=T 10.54753=T -10.9829=T -8.7281=T -11.625=T 0.8473=T -0.1542=T 1.461=T 11.26647=T -1.07955=T 5.3850715394=T 11.835765553=T 0.347168368=T pbc="F F F"
N        5.28663653      -2.00282014      -0.34732385
C        4.55393917      -1.11100292      -0.17922627
C        3.64572808       0.01536920       0.03923216
C        4.37242256       1.34646673       0.15374517
C        4.74685717       2.10838581      -1.09196664
C        3.63811626       2.61694608      -0.19806750
H        3.05995993      -0.18832163       0.95064013
H        2.92892747       0.04472289      -0.79747241
H        5.07513983       1.40132329       0.98750499
H        4.46575160       1.67486526      -2.05299780
H        5.69603527       2.64343037      -1.09917527
H        3.82603146       3.50057153       0.41171673
H        2.61251466       2.52898353      -0.56059943
