10
Properties=species:S:1:pos:R:3 -1078.8735596436618=T 7.612548=T 8.31369=T -10.7592=T -8.4861=T -11.16=T 0.9056=T -0.2498=T 1.41=T 10.75268=T -1.04888=T 5.2922680184=T 11.0005090668=T 0.436050715=T pbc="F F F"
N        0.99179401       0.07271152      -0.19144431
C        2.15616393       0.03077720      -0.10242985
C        3.58720641      -0.02060009       0.00268745
C        4.39035536      -0.75139866      -1.06570529
C        4.43960535       0.74547582      -1.00094811
H        3.95632041      -0.07718068       1.02799907
H        3.82570199      -1.21133206      -1.87554122
H        5.25106735      -1.32071548      -0.71643624
H        5.33489437       1.22470912      -0.60636921
H        3.90865081       1.30944330      -1.76659229
