10
Properties=species:S:1:pos:R:3 -1152.4628092736518=T 11.40392=T 11.15799=T -9.8142=T -7.8689=T -9.467=T -0.8048=T -2.5102=T -1.458=T 8.96437=T 2.03377=T 3.3973527846=T 4.0496059348=T 0.390481038=T pbc="F F F"
O        2.53749074      -1.20845260       0.06346685
C        2.09930932      -0.06700445      -0.00081570
C        2.91189913       1.14415188       0.00443091
C        2.48034757       2.45897469      -0.06597676
N        3.45073734       3.41925294      -0.04323080
C        4.63521703       2.85100514       0.04472754
S        4.65390071       1.11366663       0.10605864
H        1.00112775       0.13257078      -0.07046121
H        1.43294823       2.75422209      -0.13649240
H        5.57004217       3.40949291       0.07924292
