16
Properties=species:S:1:pos:R:3 -1615.1746853899574=T 10.32688=T 11.37596=T -9.3904=T -7.2286=T -10.582=T 0.9084=T 0.0067=T 2.766=T 10.12386=T -2.43127=T 8.2223919606=T 12.559905786=T 0.145279488=T pbc="F F F"
C        1.42964671       0.21119503      -0.33228191
C        2.83574261      -0.10203468       0.10625327
C        3.18128716      -1.50797534       0.58023325
O        4.61680869      -1.57489972       0.61214195
C        5.09730785      -0.72332721      -0.44566385
C        4.08377225       0.39872828      -0.54227546
N        3.62197979       0.98423786       0.73346843
H        1.36599468       1.24620357      -0.69073464
H        0.72363031       0.10261593       0.50556655
H        1.10610340      -0.46292908      -1.13960981
H        2.76101303      -2.25170231      -0.12673141
H        2.82263472      -1.74278634       1.59492400
H        6.11218232      -0.40341267      -0.16406634
H        5.14989918      -1.26889947      -1.40900001
H        4.08093632       1.05714042      -1.41410300
H        4.18932097       0.59342573       1.49773897
