20
Properties=species:S:1:pos:R:3 -1935.5422128107896=T 13.365057=T 14.8588=T -8.6531=T -6.5568=T -9.528=T 0.9664=T 0.0505=T 1.358=T 8.99874=T -0.79482=T 6.6830189804=T 0.466629274=T pbc="F F F"
C        0.98307889      -0.05508506      -0.00549649
C        2.50680646      -0.05251795       0.03858193
N        3.03729140       1.30767230      -0.07444064
C        4.49236178       1.36659530       0.06223186
C        4.99522061       2.81561475       0.01249264
C        6.49211100       2.91045983       0.04153126
C        7.20989464       3.52080390       0.99141368
H        0.59279510      -1.08132652       0.04006727
H        0.62019780       0.41763563      -0.92889260
H        0.56123011       0.49799193       0.84849034
H        2.90430558      -0.63598762      -0.80981690
H        2.85523617      -0.56864522       0.96137315
H        2.61340849       1.88567413       0.65845588
H        4.93273001       0.79777573      -0.77568917
H        4.86048143       0.88491017       0.99525528
H        4.57255378       3.38476206       0.85820320
H        4.60584654       3.27459363      -0.91285350
H        7.01850780       2.42640402      -0.79031320
H        6.72775457       4.01465959       1.83947790
H        8.29979784       3.55141940       0.95377811
