16
Properties=species:S:1:pos:R:3 -1630.4156834361181=T 12.184208=T 13.19694=T -8.4888=T -6.4567=T -9.655=T 0.9115=T -0.034=T 2.379=T 9.28896=T -1.96557=T 4.342919615=T 10.441790955=T 0.672796997=T pbc="F F F"
C        0.94963184       0.00243772       0.12077952
N        2.39731906       0.01361877       0.06737938
C        3.11237656       1.03639706       0.85971939
C        4.19700478      -0.02957752       1.21947048
C        3.12470894      -1.06994985       0.76142289
C        5.41033897       0.01301565       0.42836271
C        6.43690701       0.04246373      -0.22035430
H        0.56399206      -0.86304712      -0.43789146
H        0.55323814       0.91142222      -0.35513274
H        0.55434845      -0.04853946       1.16103700
H        2.55864598       1.35352186       1.76795451
H        3.44109599       1.92126775       0.29542543
H        4.44718929      -0.07776455       2.28817296
H        3.46378002      -1.89444989       0.11746345
H        2.57528949      -1.47676101       1.63589487
H        7.33905340       0.06893463      -0.79618407
