19
Properties=species:S:1:pos:R:3 -1803.0940713508335=T 12.121353=T 13.63722=T -8.6681=T -6.5432=T -10.134=T 0.9404=T 0.0288=T 3.203=T 9.39141=T -2.89639=T 8.1419250466=T 11.5659472198=T 0.191836727=T pbc="F F F"
C        1.35089205       0.50899752       0.53708887
C        2.72883994       0.43444089      -0.11052936
N        3.47334046       1.68044412       0.08259342
C        4.82977351       1.62791204      -0.46207464
C        5.55393792       2.93133823      -0.22068385
C        6.37015551       3.15263228       1.00698766
N        7.02872366       2.87460883      -0.28972455
H        0.78621778      -0.41710884       0.36038630
H        0.77590132       1.35337115       0.13173950
H        1.43161153       0.64463670       1.62713665
H        2.62061124       0.27738208      -1.19755315
H        3.27752560      -0.45265030       0.27842942
H        3.52934874       1.88093626       1.08626012
H        4.75328251       1.45217314      -1.54956655
H        5.44781441       0.79952838      -0.05175286
H        5.05435905       3.81323494      -0.63556692
H        6.46891990       2.34717881       1.74050835
H        6.41729103       4.16306472       1.42059352
H        7.38689384       3.74884905      -0.68596191
