10
Properties=species:S:1:pos:R:3 -1234.8166696791259=T 9.72096=T 10.10602=T -9.5157=T -7.5222=T -9.007=T 0.434=T -1.2539=T -0.468=T 8.55469=T 1.07658=T 4.457110721=T 6.7010589434=T 0.46910955=T pbc="F F F"
N        0.89462981       0.07595751      -0.00689964
C        2.06372677       0.04678604      -0.00445486
C        3.48003956      -0.00031438       0.00030309
C        4.33233959       1.08019509       0.00283509
O        5.62253817       0.65804213       0.00748988
C        5.59910370      -0.71776329       0.00750492
C        4.31724220      -1.17465743       0.00337410
H        4.16589640       2.15094986       0.00204517
H        6.56807097      -1.20299824       0.01089129
H        3.98580282      -2.20708730       0.00254097
