13
Properties=species:S:1:pos:R:3 -1422.969026495059=T 12.33995=T 11.7209=T -8.6496=T -6.6835=T -8.647=T 0.2875=T -1.3947=T -0.379=T 10.58404=T 1.16141=T 4.351598635=T 5.1603221172=T 0.518293447=T pbc="F F F"
C        3.21390099      -2.36389439       1.30193113
C        3.58233324      -1.07627306       1.15574101
C        3.03193047      -0.18317474       0.15936225
C        3.41708253       1.09996742       0.04148365
O        2.83825286       1.89620031      -0.93739986
C        3.26214895       3.19968046      -1.02209517
O        4.09665064       3.72561721      -0.32442963
H        3.65667173      -2.99766626       2.06953634
H        2.45854854      -2.81540340       0.65500074
H        4.34328677      -0.65869170       1.82350471
H        2.26948581      -0.57068753      -0.52258356
H        4.16494282       1.59632280       0.66018958
H        2.70213465       3.68129289      -1.84390118
