18
Properties=species:S:1:pos:R:3 -1693.7985908952908=T 10.866572=T 12.05572=T -9.0649=T -6.9473=T -10.21=T 0.848=T -0.2005=T 3.15=T 9.46=T -3.02734=T 8.138751005=T 11.0884027422=T 0.113668638=T pbc="F F F"
O        0.76566493       2.04977001       2.06083724
C        1.18890780       1.25747516       0.93719885
C        1.70128767       2.21056479      -0.12601245
N        2.88363157       2.92812981       0.35139110
C        3.38798235       3.93894779      -0.58467944
C        4.75489663       4.41269451      -0.09715343
O        5.63244567       3.30698100       0.09505531
H        0.57961711       1.45242240       2.80333662
H        0.34599134       0.67018723       0.52948359
H        1.99780529       0.56439663       1.23013471
H        0.87499515       2.89360678      -0.41819354
H        1.97616487       1.62838718      -1.02104827
H        2.63585134       3.37793971       1.23895254
H        2.70327557       4.80287738      -0.71788067
H        3.50763899       3.45439325      -1.56795535
H        4.63301670       4.98829194       0.84477418
H        5.21539660       5.08437358      -0.83739863
H        5.04173042       2.60389087       0.44373762
