14
Properties=species:S:1:pos:R:3 -1490.4643545299712=T 10.530199=T 11.56828=T -9.1793=T -7.2139=T -9.218=T 1.18=T -0.4291=T 0.021=T 8.54148=T 0.57154=T 4.8329370842=T 6.6847175886=T 0.369194105=T pbc="F F F"
C        0.94746077      -0.06344940      -0.00954102
C        2.42328614       0.11672983       0.00090845
C        3.24586403       1.21015745       0.00716087
C        4.56510582       0.66807687       0.01522332
C        5.87182893       1.40320206       0.02539179
N        4.54654442      -0.65468324       0.01398069
O        3.17800726      -1.01142751       0.00472255
H        0.44839908       0.91218653      -0.00180265
H        0.61558956      -0.63390896       0.86979629
H        0.62543483      -0.61455042      -0.90483817
H        2.95513190       2.25547883       0.00591506
H        5.70629217       2.48686743       0.00957891
H        6.47876899       1.13152453      -0.84864637
H        6.45245608       1.15398600       0.92380028
