14
Properties=species:S:1:pos:R:3 -1479.7453849911312=T 9.930378=T 11.22176=T -10.0552=T -7.8531=T -11.635=T 0.867=T -0.178=T 1.303=T 11.4999=T -0.96103=T 5.3801492952=T 12.3597799834=T 0.308737611=T pbc="F F F"
N        2.85421136      -0.97185151      -2.26829136
C        3.17260973      -0.52754681      -1.23769560
C        3.57967245       0.07070891       0.02821806
C        4.39042919       1.35647334      -0.18202877
C        3.64570079       2.62913632      -0.63073969
C        4.21062474       3.24729002       0.66141475
O        4.74465312       1.95528622       1.09444960
H        4.18859450      -0.65249378       0.59292106
H        2.68587100       0.29170359       0.63199642
H        5.29168086       1.12998336      -0.77891878
H        2.55348945       2.52193185      -0.64296324
H        3.97834287       3.07356371      -1.57520945
H        5.02088816       3.97871884       0.50899737
H        3.48480178       3.64720594       1.38532963
