14
Properties=species:S:1:pos:R:3 -1436.9095196944158=T 10.74113=T 11.92809=T -9.7445=T -7.512=T -9.817=T 0.9072=T -0.2485=T 2.212=T 9.42059=T -1.8338=T 4.4013542168=T 10.3275750518=T 0.306428522=T pbc="F F F"
O        1.12769400       0.24009343      -0.00506392
C        2.53900797      -0.03380474      -0.08097025
C        2.78748250      -0.81228686      -1.29306553
C        3.03838872      -1.43814003      -2.30078482
C        3.35033666       1.25666471      -0.07971136
C        3.69061459       1.93364744       1.20433154
N        4.71182218       1.15981731       0.46747984
H        0.99574394       0.78571935       0.79150892
H        2.87226595      -0.63558820       0.78811540
H        3.24978533      -2.00534368      -3.18417186
H        3.17575889       1.89279801      -0.95279785
H        3.39079322       1.48570981       2.15639213
H        3.74074243       3.02525085       1.20427872
H        5.33823363       1.78943261      -0.04232093
