14
Properties=species:S:1:pos:R:3 -1484.2703763959346=T 11.457328=T 12.09325=T -8.9124=T -6.9257=T -9.225=T 0.6936=T -0.9326=T -0.11=T 8.77323=T 0.59422=T 4.936998534=T 5.0144029938=T 0.293273699=T pbc="F F F"
C        1.14274048      -0.07843447      -0.56941942
O        2.56525361      -0.12412653      -0.36232046
C        3.16538475       1.08361454      -0.26014279
C        4.50208385       1.20211822      -0.06082357
C        5.44757871       0.03405869       0.06543624
C        5.03604914       2.51779202       0.03222540
N        5.51890527       3.58255297       0.11497873
H        0.81070040      -1.11976110      -0.63276728
H        0.90178850       0.44274727      -1.50833611
H        0.64130735       0.41747202       0.27553944
H        2.52273973       1.96487340      -0.34579346
H        4.90181815      -0.91142593      -0.02421113
H        5.96351498       0.05401560       1.03618400
H        6.21896508       0.07247331      -0.71726959
