17
Properties=species:S:1:pos:R:3 -1635.89229344087=T 11.009502=T 11.78634=T -9.0341=T -7.0111=T -9.901=T 0.7461=T -0.2281=T 1.047=T 9.15347=T -0.45135=T 4.87140994=T 6.4174409684=T 0.196346513=T pbc="F F F"
C        5.66233622       1.02381516       1.84896520
O        4.49941943       1.83758482       2.01785561
C        3.84599557       2.12958712       0.78694881
C        2.44739724       2.64130607       1.12852718
C        4.62887945       3.17618953      -0.02919419
N        4.44401090       3.08816721      -1.39906127
N        5.42034818       4.05767611       0.46789257
H        6.08073214       0.86309448       2.85009823
H        6.41807134       1.51489934       1.21260549
H        5.39724772       0.04636404       1.40561922
H        3.76984237       1.19965981       0.18472794
H        2.52360908       3.53836139       1.75793017
H        1.88642140       1.87153547       1.67420859
H        1.89059701       2.90531418       0.21902821
H        3.59232946       2.65133557      -1.73704907
H        4.73942468       3.91179751      -1.91916755
H        5.46907781       3.91680217       1.48581487
