12
Properties=species:S:1:pos:R:3 -1384.856664752735=T 12.607963=T 12.5426=T -9.4669=T -7.5434=T -9.069=T -0.7094=T -2.3264=T -0.669=T 8.55157=T 1.17808=T 3.927380536=T 10.8960260646=T 0.365466702=T pbc="F F F"
C        0.96419038       0.06643833      -0.04697597
C        2.46547250      -0.02861387      -0.00640278
C        3.14234960      -1.20713497       0.10734851
C        2.49772740      -2.46555862       0.19959250
N        1.99218794      -3.51970642       0.27761824
C        3.19130631       1.18852303      -0.09436145
C        3.76199119       2.26066764      -0.17182004
H        0.60333740       0.69360876       0.78130800
H        0.49881092      -0.92341171       0.02186335
H        0.64300969       0.55191712      -0.97998134
H        4.23301448      -1.21541964       0.13075400
H        4.28136219       3.19497034      -0.24120302
