16
Properties=species:S:1:pos:R:3 -1677.9270412134697=T 10.511579=T 11.41868=T -8.9506=T -7.0052=T -10.361=T 0.9681=T 0.0895=T 3.27=T 10.70442=T -2.93926=T 8.6096870288=T 12.044681963=T 0.219915679=T pbc="F F F"
C        0.56912415       1.15829545       0.63222199
C       -0.89822440       0.76473407       0.43252867
C       -0.91593529      -0.01259762      -0.87130685
C        0.54236165      -0.01864398      -1.34173162
N        1.24931737       0.00006234      -0.02446181
C        0.56997835      -1.13983991       0.66435400
C       -0.89765876      -0.75312279       0.45375296
H        0.84749493       2.09377104       0.12511237
H        0.86899912       1.21981018       1.68866771
H       -1.74308170       1.35844079       0.77601717
H       -1.77452017      -0.02226398      -1.53988283
H        0.82026425      -0.92216443      -1.90405196
H        0.81960714       0.86898898      -1.92912871
H        0.86988906      -1.17162485       1.72210217
H        0.84902456      -2.08892321       0.18357262
H       -1.74206025      -1.33764209       0.81372412
