15
Properties=species:S:1:pos:R:3 -1459.4524105790756=T 9.216205=T 9.97087=T -9.46=T -7.1833=T -10.774=T 0.862=T -0.1335=T 3.086=T 10.13162=T -2.8439=T 8.6465728638=T 11.5896285458=T 0.136426925=T pbc="F F F"
N        0.96654092      -0.02975359       0.04887727
C        2.43162261       0.00213763      -0.03067012
C        3.03419671       1.14734891       0.79983604
C        4.42101502       0.61209993       1.20447636
O        4.42943249      -0.80601446       0.91693005
C        3.08329818      -1.20670935       0.65082429
H        0.60035920      -0.76136657      -0.56631129
H        0.58327241       0.84844382      -0.31005670
H        2.82005499       0.06386426      -1.06741215
H        2.39367147       1.30372126       1.68149804
H        3.09473483       2.09301359       0.24343486
H        5.23957566       1.06794862       0.62499335
H        4.62442444       0.77619787       2.27713640
H        3.12663060      -2.10900384       0.02299208
H        2.52818048      -1.43971808       1.58155153
