16
Properties=species:S:1:pos:R:3 -1611.1741619583331=T 10.671483=T 11.63309=T -8.9384=T -6.807=T -10.445=T 1.0579=T -0.8897=T 0.013=T 10.00194=T 0.64734=T 3.693914898=T 8.2019714664=T 0.098671402=T pbc="F F F"
C        0.97962224       0.10581494       0.38101132
C        2.40645421      -0.16470525      -0.07566810
N        3.43310870       0.83935909       0.33773733
C        3.96538321      -0.06840672       1.39593315
C        3.18352831      -1.23640356       0.75976924
C        3.98476858      -2.21031361      -0.06303011
O        5.18241297      -2.40015047       0.03661774
H        0.31435595      -0.72888164       0.11102338
H        0.58513877       1.01231768      -0.10288076
H        0.92716489       0.24635383       1.47202860
H        2.41765895      -0.34229982      -1.16657431
H        3.03083183       1.71038818       0.69261372
H        5.05940653      -0.18098601       1.37930263
H        3.63614543       0.16455080       2.42204377
H        2.53586112      -1.82491621       1.43105102
H        3.37573834      -2.78586125      -0.81130863
