20
Properties=species:S:1:pos:R:3 -1927.9277146236836=T 13.144494=T 13.99511=T -8.273=T -6.3145=T -9.376=T 1.2647=T -0.0282=T 1.402=T 8.81548=T -0.81501=T 6.5946169624=T 0.419184136=T pbc="F F F"
C        1.36806742      -0.12711543       0.15507963
C        2.69926768       0.15305363      -0.56279696
C        2.67960388      -0.55168484      -1.89778739
C        3.42283890      -1.61616793      -2.21679849
N        2.92148667       1.60238732      -0.75943482
C        2.84850887       2.36185652       0.48702954
C        4.20951145       1.85522123      -1.40633745
H        1.37834599       0.22176309       1.19590978
H        1.18013567      -1.20849837       0.16655603
H        0.53752283       0.36517434      -0.37299435
H        3.52452176      -0.28371713       0.05113381
H        1.95715006      -0.15005204      -2.61864672
H        4.15489070      -2.03063577      -1.51839012
H        3.32434404      -2.11129832      -3.18416645
H        1.84458688       2.30731175       0.92511026
H        3.05862386       3.41861698       0.27010183
H        3.58587211       2.01857363       1.24904229
H        4.26757222       1.31824048      -2.36118485
H        5.07449256       1.53709224      -0.78052276
H        4.30976643       2.93128863      -1.60616282
