14
Properties=species:S:1:pos:R:3 -1433.9753309726364=T 10.871757=T 10.85542=T -8.7812=T -6.7121=T -8.609=T 0.6409=T -0.943=T 0.276=T 8.06603=T 0.2362=T 5.2630941126=T 0.753977549=T pbc="F F F"
O        0.83083094       0.00687300      -0.00755081
C        2.25853447       0.03986200       0.00645482
C        2.75373432       1.46511855       0.01749469
C        1.89892693       2.50767104       0.00550993
C        4.19990900       1.68569217       0.04131089
C        5.15737499       0.73924153       0.05924917
H        0.55897498      -0.92456841      -0.00627653
H        2.67377661      -0.47245527      -0.88341036
H        2.65647231      -0.48090877       0.89906437
H        0.82168105       2.35241679      -0.01124049
H        2.27518329       3.53176605       0.01345728
H        4.50368572       2.73779528       0.04481069
H        4.93050042      -0.32837038       0.05716598
H        6.21249497       1.01216643       0.07685038
