15
Properties=species:S:1:pos:R:3 -1502.4476121229181=T 9.626855=T 10.30601=T -8.6151=T -6.4624=T -10.115=T 0.9573=T 0.0426=T 3.08=T 9.42968=T -2.85384=T 8.259079418=T 13.543486724=T 0.11614523=T pbc="F F F"
C        0.92473145      -0.01070961       0.98394386
C        0.32702667      -1.03802121      -0.02589962
C        0.73715578      -0.01887448      -1.13561866
C        0.31761412       0.99492456      -0.04098544
N       -1.15133056       0.76593957       0.01841844
C       -1.17668669      -0.73978907       0.09024144
H        2.02322160      -0.01910433       0.98762905
H        0.53122457       0.00081435       2.01262980
H        0.63326754      -2.09120722      -0.04954306
H        0.16511667      -0.00820121      -2.07387887
H        1.81775832      -0.01689562      -1.32476101
H        0.58737070       2.05747029      -0.07787698
H       -1.51245620       1.15024084       0.89594748
H       -1.75762682      -1.15947811      -0.74598035
H       -1.60643715      -1.10889874       1.03485392
