15
Properties=species:S:1:pos:R:3 -1539.5919500394343=T 10.878985=T 12.18256=T -9.5587=T -7.4997=T -10.975=T 0.8642=T -0.1318=T 1.499=T 10.24744=T -1.11543=T 5.3847615744=T 12.310383961=T 0.24896635=T pbc="F F F"
N        0.88674653      -0.05591110      -0.83596856
C        2.05262851      -0.01911297      -0.82544946
C        3.50885024       0.03718791      -0.78509675
C        4.03639751       0.58421666       0.55422332
N        5.49600331       0.57318191       0.53460511
C        6.12887249       1.80844070       0.04742275
C        6.13773470       1.47120093       1.50098652
H        3.86015465       0.66973582      -1.61551869
H        3.91539393      -0.97170463      -0.95305312
H        3.69608487      -0.06644216       1.37395498
H        3.61605170       1.59568679       0.73258605
H        5.47387528       2.62917307      -0.26552985
H        7.02790343       1.67101960      -0.55643277
H        7.04255283       1.08239209       1.97217146
H        5.48980001       2.06798537       2.15129901
