17
Properties=species:S:1:pos:R:3 -1644.8201110057614=T 10.958493=T 11.75811=T -8.8073=T -6.863=T -10.031=T 0.8897=T -0.2458=T 0.603=T 9.38133=T 0.09946=T 4.2965116552=T 12.7332630112=T 0.218360665=T pbc="F F F"
C        1.00226113      -0.75571431      -0.80967830
N        2.25740804      -0.52192161      -0.10673723
C        2.88430231      -1.68562963       0.50549884
C        2.81385688       0.71858327       0.09220083
O        3.86170074       0.88578637       0.72844254
C        2.08631865       1.93087903      -0.50825640
N        2.14866408       1.92641458      -1.98241168
H        0.80715028       0.05938502      -1.51405618
H        0.15849241      -0.87263759      -0.10694042
H        1.08773906      -1.68495621      -1.39258835
H        2.20846480      -2.14527309       1.24550241
H        3.80231112      -1.35853577       1.00451444
H        3.12501722      -2.43849668      -0.26163572
H        2.56142377       2.80482896      -0.03285354
H        1.02555145       1.92002376      -0.20841216
H        3.12952220       1.96366798      -2.27343851
H        1.71683585       2.78155592      -2.34118057
