19
Properties=species:S:1:pos:R:3 -1874.5244044402048=T 11.596618=T 12.96193=T -9.8384=T -7.681=T -11.156=T 0.8816=T -0.0664=T 2.709=T 10.76411=T -2.34612=T 8.7730757796=T 11.1569793988=T 0.148931457=T pbc="F F F"
C        2.39030069      -1.40148432      -0.53259423
C        1.84207660      -0.06788111      -0.02342136
O        0.92682552      -0.26903119       1.07225171
C        2.93306915       0.94870705       0.31540310
C        3.92747622       0.54725987       1.38899426
C        3.42847944       1.80497643      -0.83110297
C        2.53676788       2.40416864       0.23506321
H        3.04788290      -1.25131271      -1.40135084
H        1.56323721      -2.06128204      -0.82646492
H        2.97565491      -1.91613083       0.24549393
H        1.21040515       0.37663199      -0.81123518
H        1.40162648      -0.76537274       1.76261891
H        4.64120360       1.36155851       1.57782819
H        4.51051235      -0.34139780       1.10295817
H        3.42259848       0.33700279       2.34603609
H        2.99918446       1.64004482      -1.82150131
H        4.48303951       2.08555696      -0.84012790
H        2.98688687       3.09483075       0.94977981
H        1.50349257       2.63570494      -0.02761866
