14
Properties=species:S:1:pos:R:3 -1523.8236967289824=T 11.571279=T 13.55125=T -10.0384=T -7.7963=T -9.657=T 0.6887=T -0.2633=T 1.219=T 9.2018=T -0.89444=T 4.1593211462=T 9.846844134=T 0.556211471=T pbc="F F F"
C        0.96320952       0.05562138       0.00312678
C        2.50151563       0.02854410      -0.00014211
C        3.09409817       1.36109162      -0.00013617
C        3.55790752       2.48326803      -0.00002889
C        4.13066533       3.82785354       0.00007103
C        3.11698838       4.89093245       0.00006808
N        2.32868576       5.74920276       0.00006823
H        0.56614918      -0.96852335       0.00294741
H        0.57979146       0.57716322      -0.88369269
H        0.58353369       0.57539935       0.89258921
H        2.86411806      -0.52444916      -0.88268037
H        2.86783112      -0.52608610       0.87983335
H        4.77555000       3.97562066      -0.88310523
H        4.77545616       3.97553150       0.88333137
