12
Properties=species:S:1:pos:R:3 -1278.4337362936537=T 12.101556=T 12.16066=T -7.6063=T -5.6853=T -7.886=T 0.9911=T -0.3498=T 0.231=T 7.49721=T 0.35262=T 4.0253418746=T 6.2695752648=T 0.335856822=T pbc="F F F"
N        0.80998958       0.04339414      -0.22391725
C        2.19968533      -0.00902787      -0.02663269
C        3.12414308       1.00632720       0.01366100
C        4.48033730       0.55226646       0.06790618
C        4.58773691      -0.80998243       0.07737464
O        5.73119074      -1.53980855       0.27267341
S        2.99579217      -1.58334146       0.00617401
H        0.48573459       1.00255343      -0.34396847
H        0.27432583      -0.40543266       0.52035941
H        2.84143163       2.05898681      -0.00025140
H        5.34954585       1.20570899       0.11731740
H        5.79469698      -2.23349405      -0.40896624
