15
Properties=species:S:1:pos:R:3 -1579.4208010884026=T 11.737805=T 11.98352=T -7.085=T -5.1683=T -7.464=T 0.8175=T -0.0965=T 1.125=T 6.931=T -0.52626=T 4.4562056232=T 5.8777671062=T 0.349800179=T pbc="F F F"
C        0.91559846      -0.06928142      -0.02463364
C        2.40283249       0.04578968      -0.01645437
C        3.23970454       1.15666669      -0.07697260
N        2.84165981       2.50895039      -0.22283040
C        4.58972152       0.68944211      -0.06275183
C        4.55108299      -0.69237093       0.00980062
N        3.23086233      -1.07100001       0.03660916
H        0.45392064       0.92737271      -0.02158745
H        0.52789265      -0.60640818       0.85735672
H        0.53718035      -0.58666055      -0.92285742
H        3.51668667       3.14249386       0.20461450
H        1.92959918       2.69064221       0.19580773
H        5.48710529       1.30074714      -0.10558392
H        5.35068000      -1.42409779       0.04608592
H        2.89973309      -2.02709592       0.07934699
