19
Properties=species:S:1:pos:R:3 -1826.645390037595=T 11.126758=T 12.47446=T -9.9233=T -7.6674=T -11.773=T 0.8145=T -0.2386=T 2.671=T 11.35847=T -2.38698=T 9.3582525038=T 9.833019695=T 0.074314223=T pbc="F F F"
C        0.92527810      -0.28072860       0.38087594
C        2.41762971      -0.21775897       0.03161299
C        2.82247191      -1.41448510      -0.84034597
C        2.75724654       1.12370664      -0.63674343
O        2.35197978       2.18408757       0.23485361
C        4.24473564       1.29545635      -0.95917107
O        4.52280843       2.64790325      -1.37468498
H        0.62850221       0.57080358       1.00545696
H        0.69488182      -1.20975694       0.92254907
H        0.31018997      -0.26423708      -0.53365032
H        2.99335529      -0.25269120       0.97475684
H        2.34450606      -1.36129698      -1.83233819
H        2.49541220      -2.35329708      -0.37049983
H        3.90919281      -1.48523951      -0.98979713
H        2.18452047       1.18737763      -1.59203509
H        2.86284839       2.96391582      -0.06030264
H        4.57875862       0.57511115      -1.72299510
H        4.84055587       1.14489210      -0.04562152
H        4.20778620       2.74773736      -2.29078015
