20
Properties=species:S:1:pos:R:3 -1935.511703965445=T 12.437009=T 13.67345=T -8.0369=T -6.072=T -9.507=T 0.942=T 0.0516=T 3.195=T 8.69936=T -2.96658=T 7.6040737786=T 10.2760092744=T 0.108686942=T pbc="F F F"
C        0.95395392      -0.07803264       0.10280420
C        2.46814858       0.02157720       0.03032360
C        3.20292090       1.10864168       0.85539659
C        4.23627452       0.00826540       1.21952116
C        5.53314728       0.08281730       0.41351292
N        3.22252868      -1.00426874       0.79126631
C        3.62387211      -2.22622055       0.12255206
H        0.59072768      -0.98856686      -0.39768428
H        0.48309668       0.78377809      -0.39435803
H        0.62250069      -0.10735712       1.15096639
H        2.78605465       0.06232188      -1.03563045
H        2.61262907       1.44376361       1.71907915
H        3.58661807       1.97839844       0.30682709
H        4.47960510      -0.08208674       2.29292086
H        5.34581019       0.22374580      -0.66169534
H        6.14154670      -0.82532026       0.53827040
H        6.13509561       0.93499241       0.76343999
H        2.72688476      -2.81292249      -0.12721460
H        4.23587122      -2.84037251       0.80059814
H        4.19766360      -2.06752390      -0.81649616
