15
Properties=species:S:1:pos:R:3 -1446.1801556802552=T 9.478994=T 10.6962=T -9.4463=T -7.1036=T -10.711=T 0.9823=T 0.0399=T 2.803=T 10.05512=T -2.55838=T 8.5387546382=T 11.213975763=T 0.133418446=T pbc="F F F"
C        1.01051743      -0.08483984      -0.03612073
C        2.50467877       0.09700817      -0.07128513
O        3.19136072      -0.36121325      -1.26010665
C        3.16662115       1.06146669      -0.96595297
C        4.49740915       1.68913980      -0.63942799
N        5.24297864       1.94482616      -1.87962646
H        0.56767680       0.53323607       0.75946950
H        0.75366309      -1.13418029       0.16952528
H        0.55942906       0.19983551      -0.99600813
H        3.03308337      -0.16141537       0.85691771
H        2.54019377       1.63872619      -1.65858350
H        5.02030229       1.03793798       0.08928381
H        4.31279738       2.65789436      -0.14466888
H        5.47385530       1.05018419      -2.32044451
H        6.13279308       2.39985362      -1.66596137
