17
Properties=species:S:1:pos:R:3 -1775.1456057205828=T 14.116978=T 15.23506=T -8.719=T -6.669=T -8.454=T 0.7311=T -0.8376=T 0.629=T 8.00215=T -0.07071=T 3.7861356848=T 5.9224516606=T 0.499462241=T pbc="F F F"
C        0.96197514      -0.09366864       0.01822423
C        2.50126592      -0.02787580      -0.01495013
C        3.07354497      -0.79427863      -1.22475714
C        2.97386316       1.35551337       0.00362018
C        3.34493518       2.51900875       0.00227043
C        3.83622722       3.84915408       0.00565132
C        3.07095800       4.95858561       0.00569826
H        0.56296689       0.43046361       0.89660797
H        0.62781687      -1.14062392       0.05453261
H        0.53779822       0.37446105      -0.88170133
H        2.88124404      -0.51664494       0.90186530
H        2.71840924      -0.34885976      -2.16513205
H        2.74927393      -1.84454929      -1.19412244
H        4.17117600      -0.76788453      -1.22696307
H        4.92681476       3.95680788       0.00807993
H        1.98194530       4.89780493       0.00306109
H        3.52607517       5.94879623       0.00823483
