12
Properties=species:S:1:pos:R:3 -1287.5388501876625=T 9.246973=T 9.87647=T -9.4734=T -7.4045=T -9.287=T 1.1213=T -0.588=T -0.114=T 8.65484=T 0.67154=T 4.7815076914=T 6.9221755758=T 0.40221299=T pbc="F F F"
O        1.52498723      -0.25435116      -0.93689802
C        2.66259032      -0.06250679      -0.09809500
C        2.89503402       1.40763651       0.02569426
C        2.24871937       2.50184308      -0.47566606
C        3.00392544       3.59145570       0.03910393
N        4.01927734       3.20668695       0.78710901
O        3.95254584       1.79099749       0.78066285
H        1.36870992      -1.21007633      -1.00910570
H        3.56925916      -0.53549799      -0.52068613
H        2.50531411      -0.48807343       0.91117521
H        1.37214796       2.51197386      -1.11188372
H        2.84531930       4.65779212      -0.10796063
