14
Properties=species:S:1:pos:R:3 -1403.954779234589=T 11.14277=T 11.52269=T -8.7722=T -6.8776=T -9.252=T 1.0617=T -0.5513=T 0.375=T 8.57542=T 0.19295=T 4.7402823464=T 5.2450789468=T 0.340397924=T pbc="F F F"
C        2.00796752       0.19063139       0.46438942
N        3.08825868      -0.49030500      -0.23592342
C        2.88132470      -1.89514979      -0.57707426
C        2.74272517      -2.73965202       0.61302183
N        2.60479644      -3.41652743       1.55191454
N        3.81038738       0.14709053      -1.19783043
C        3.74433310       1.43060391      -1.31958628
H        2.41125423       1.02534445       1.05420921
H        1.53663345      -0.51393101       1.15916532
H        1.24582873       0.58442162      -0.23592394
H        3.76056766      -2.21432032      -1.15349371
H        1.98915385      -2.05270067      -1.21668491
H        4.39401914       1.87430182      -2.07423498
H        3.11133994       2.09248252      -0.71749839
