17
Properties=species:S:1:pos:R:3 -1721.7849414161378=T 12.329722=T 14.27324=T -9.4036=T -7.1286=T -9.177=T 0.8705=T -0.1637=T 2.381=T 8.73021=T -1.95408=T 4.1606973908=T 11.8198085548=T 0.36284512=T pbc="F F F"
C        0.96880124      -0.08936340       0.00747633
C        2.50602278      -0.01602500       0.00539472
C        3.00774958       1.35384168      -0.01122135
C        3.38034624       2.51112232      -0.02387441
C        3.88874999       3.88170983      -0.03788614
C        5.04636283       4.04701054      -1.03191275
O        2.78697571       4.76183123      -0.35639792
H        0.63630579      -1.13666033       0.01339262
H        0.55514861       0.40271786      -0.88275566
H        0.55654184       0.41256444       0.89288532
H        2.90280514      -0.55977922      -0.86864412
H        2.90372102      -0.53516054       0.89396562
H        4.25858545       4.11619440       0.98115040
H        4.70077447       3.82111715      -2.04919474
H        5.87365844       3.37010944      -0.77773633
H        5.42677780       5.07948308      -1.00440897
H        3.13414307       5.67071653      -0.31501262
