20
Properties=species:S:1:pos:R:3 -1931.6280380439987=T 12.527885=T 13.96503=T -8.8072=T -6.7815=T -10.372=T 0.9393=T 0.0729=T 3.001=T 9.68944=T -2.6443=T 8.4026056116=T 12.8446644322=T 0.117623068=T pbc="F F F"
C        1.14304464       0.11510889       0.16224233
C        2.64678360      -0.05292902      -0.08770760
C        2.92712140      -0.79235968      -1.40172519
C        3.34446895       1.29496549      -0.07728387
C        3.85260095       1.93617444       1.17239609
N        4.78161463       1.32168659       0.21215612
C        5.57535712       2.26013506      -0.57658633
H        0.94959577       0.63088126       1.11432819
H        0.63733930      -0.86105376       0.19498793
H        0.67345255       0.70521263      -0.64121717
H        3.08084597      -0.64189980       0.73900123
H        2.51640089      -0.23642924      -2.26032312
H        2.46794314      -1.79199514      -1.40225395
H        4.00870978      -0.91248338      -1.55707609
H        2.99879361       1.99525849      -0.85351545
H        3.75626601       1.41861621       2.13105403
H        3.82472838       3.03013485       1.22814479
H        5.88398572       1.77469116      -1.51416827
H        6.48205200       2.53057118      -0.01534367
H        5.03077561       3.19349378      -0.82964002
