19
Properties=species:S:1:pos:R:3 -1800.2765467800991=T 13.190987=T 13.75593=T -7.7926=T -5.9205=T -8.516=T 0.9248=T -0.0161=T 0.94=T 7.88088=T -0.30078=T 4.7478206952=T 5.1263375546=T 0.208230304=T pbc="F F F"
C        1.75314928      -0.04641656       1.70483295
C        2.71010056      -0.29163842       0.52870604
C        2.82946515       0.89519647      -0.38203252
N        3.98618936       1.43304721      -0.58956205
N        4.13509799       2.46808827      -1.47013493
C        2.96304954       3.19115502      -1.93830057
C        5.29997170       3.28668540      -1.15568371
H        1.65340543      -0.94763248       2.32671827
H        0.74710790       0.22659721       1.35088088
H        2.11753286       0.77150649       2.34312717
H        2.34645656      -1.15963795      -0.05123843
H        3.71598556      -0.54824323       0.89228868
H        1.90258664       1.25957459      -0.85211062
H        2.30925895       2.52773975      -2.52372548
H        3.29247580       4.00714897      -2.59261449
H        2.36926557       3.61757493      -1.10332808
H        6.11697123       2.61770750      -0.86270804
H        5.11118409       3.99569457      -0.32520470
H        5.59921583       3.85745226      -2.04577037
