9
Properties=species:S:1:pos:R:3 -991.45961041976=T 8.245541=T 8.77913=T -9.9218=T -7.8759=T -10.313=T -0.0457=T -1.962=T -0.718=T 9.81868=T 1.291=T 3.5164785334=T 10.5179431562=T 0.688133477=T pbc="F F F"
C        0.97955821      -0.00415256       0.00020126
C        2.42828479       0.01858499       0.00012255
C        3.64787448       0.05876652       0.00004970
C        5.08513448       0.03573748      -0.00004083
O        5.79578137       1.03351792      -0.00030498
H        0.56325270       1.01292286       0.01182930
H        0.60170707      -0.54366723       0.88122448
H        0.60176736      -0.52292355      -0.89325144
H        5.52773954      -0.98956643       0.00015997
