17
Properties=species:S:1:pos:R:3 -1683.8777906412488=T 11.625744=T 12.89729=T -8.8771=T -6.8447=T -10.108=T 0.7572=T -0.2572=T 1.468=T 9.29779=T -1.09598=T 5.383906071=T 12.0866884198=T 0.295624503=T pbc="F F F"
C        1.19174485      -0.61204711       0.61036270
N        2.15915061      -0.40350604      -0.46560223
C        2.71843122      -1.68050906      -0.90392032
C        1.55602509       0.34742242      -1.56312259
C        2.62410495       0.93581260      -2.50755383
C        2.03499483       1.78863932      -3.53307980
N        1.54857798       2.47103038      -4.34456540
H        0.82161906       0.35780625       0.97076713
H        1.68363467      -1.12330946       1.44977624
H        0.31783127      -1.22564307       0.29833335
H        3.16477838      -2.19561856      -0.04213141
H        3.51726737      -1.52638653      -1.64206949
H        1.95423924      -2.35381294      -1.35281336
H        0.98388609       1.18115299      -1.13086124
H        0.83947048      -0.26537586      -2.15482709
H        3.19095023       0.13919367      -3.01242871
H        3.34363369       1.52542099      -1.91864395
