15
Properties=species:S:1:pos:R:3 -1455.5905536141727=T 10.89426=T 11.76913=T -9.3428=T -7.2751=T -10.552=T 1.5207=T -0.2175=T 0.474=T 10.07923=T 0.13368=T 5.5258576424=T 6.589917893=T 0.19923178=T pbc="F F F"
O        1.45291571       0.42000439       1.86489759
N        2.69465532       0.38024826       1.17485639
C        2.78462049       1.34524616       0.33542250
C        4.02520882       1.49563709      -0.48892427
C        4.70840977       2.82909528      -0.24468131
C        5.47263881       3.52298307      -1.31548701
N        4.11994096       3.99408151      -0.94162242
H        1.52413049      -0.36013660       2.44367516
H        1.97282675       2.07653328       0.21759787
H        3.75829530       1.43982954      -1.55763889
H        4.71174584       0.66599005      -0.26339292
H        5.05945730       2.98238626       0.78133407
H        5.53615598       3.07003465      -2.30836643
H        6.34155614       4.11777618      -1.02369495
H        4.19526231       4.82905089      -0.35280537
