14
Properties=species:S:1:pos:R:3 -1496.3200258721047=T 11.019952=T 11.37195=T -7.3452=T -5.4611=T -7.729=T 0.8823=T -0.0681=T 0.691=T 7.2588=T -0.12459=T 4.202877428=T 6.705100887=T 0.339370942=T pbc="F F F"
C        3.02167621      -1.09757088       0.49944827
N        2.50093697       0.02540345      -0.28696684
C        3.06725797       1.27928596      -0.10696815
C        2.55250625       2.55462336      -0.10909950
C        3.68236698       3.43492017      -0.00522287
C        4.79296799       2.65007899       0.06758845
O        4.43159148       1.31209310       0.00189975
H        2.47233903      -2.00370502       0.21587385
H        2.93304610      -0.94830682       1.59120815
H        4.07957885      -1.25319417       0.25609964
H        1.48529182       0.08592662      -0.26884876
H        1.50419894       2.82786100      -0.17233142
H        3.66343756       4.52021771       0.02416332
H        5.85317384       2.83974652       0.18172610
