16
Properties=species:S:1:pos:R:3 -1555.5261334978097=T 10.086704=T 11.12287=T -8.7405=T -6.5873=T -10.299=T 0.8056=T -0.1807=T 2.935=T 9.94614=T -2.59058=T 8.0663555796=T 12.9870251574=T 0.139709775=T pbc="F F F"
C        0.93498807      -0.04103145      -0.00986817
C        2.44598450      -0.05501162       0.02867749
N        3.10701873      -0.10999918       1.32515485
C        3.22248490      -0.74195024      -1.08266404
O        2.46318178      -1.39225197      -2.07833537
C        3.25191267       0.77032882      -0.97562905
O        4.41008150       1.41396725      -0.52449016
H        0.56535167       0.00159789      -1.04257324
H        0.54388688       0.83234677       0.53540814
H        0.52168183      -0.95141281       0.45268269
H        3.09085956      -1.05943651       1.70594133
H        2.61834174       0.49265335       1.99285608
H        4.14371756      -1.25369694      -0.77357696
H        2.92588203      -1.26461897      -2.92534410
H        2.69746362       1.34321308      -1.72409820
H        4.51433294       1.07748252       0.39780871
