17
Properties=species:S:1:pos:R:3 -1601.2292652938952=T 11.66219=T 12.21711=T -8.0226=T -6.147=T -9.395=T 0.9145=T -0.0765=T 0.638=T 8.68897=T -0.02938=T 4.7199858382=T 5.5013456102=T 0.184193039=T pbc="F F F"
C        1.52881917       2.19369502       1.10659233
C        2.14145678       0.87665924       0.62846915
N        3.47375286       0.99561881       0.04675102
O        3.47316279       1.78571659      -1.13074756
C        4.58563192       1.20670813       0.82162873
N        5.55361997       1.91651885       0.35472130
C        6.77321033       2.03311270       1.12875681
H        0.51358090       2.01912560       1.48974681
H        1.46706570       2.91078884       0.27827746
H        2.12835259       2.64273995       1.91135064
H        1.50235943       0.40430784      -0.13255295
H        2.24107812       0.15776346       1.45669835
H        4.37930220       2.20732322      -1.04968113
H        4.56974832       0.68785983       1.79402048
H        7.00983615       3.09581779       1.29434966
H        7.61970781       1.59923723       0.57200680
H        6.71872498       1.53336691       2.11466210
