18
Properties=species:S:1:pos:R:3 -1793.9151790593398=T 12.43992=T 13.61408=T -8.8498=T -6.7676=T -8.792=T 0.9554=T -0.0863=T 1.439=T 8.20996=T -0.73182=T 6.0593694004=T 0.37722943=T pbc="F F F"
C        0.84602571      -0.14011797       0.13417153
C        2.33687185       0.01071155       0.15175204
C        3.05895937       1.13184059      -0.03090148
C        2.50124921       2.50311523      -0.30013237
C        4.55481770       1.09096403       0.05456334
C        5.38372582       0.00420248      -0.52886087
N        5.29887424       1.31537019      -1.21484415
H        0.53542299      -0.86663643      -0.63452755
H        0.31890098       0.80194659      -0.06149810
H        0.48271490      -0.53527757       1.09696374
H        2.89526135      -0.91301947       0.34184706
H        1.40914135       2.51517219      -0.39375729
H        2.93599739       2.90187105      -1.22975039
H        2.77923087       3.20254850       0.50644053
H        4.96997977       1.58370810       0.94434926
H        4.89430114      -0.81197361      -1.06466896
H        6.31191930      -0.26738616      -0.01910074
H        6.14846607       1.85562071      -1.02018561
