15
Properties=species:S:1:pos:R:3 -1470.1429816376972=T 11.199493=T 11.73865=T -8.3881=T -6.3882=T -9.153=T 1.3094=T -0.1962=T 0.696=T 8.73467=T -0.10541=T 4.89682707=T 5.53411511=T 0.184763344=T pbc="F F F"
N        1.05310976       1.44944048      -1.29835448
N        2.42275857       1.29626706      -1.28128133
C        2.97982417       0.95320808      -0.17370177
C        4.44951897       0.91406946      -0.01949498
C        5.37390797       1.19906960      -1.19051616
C        5.25577016       2.19900680      -0.07487831
O        6.28907079       2.32247824       0.87663597
H        0.69668499       1.25035519      -2.23154957
H        0.55117478       0.90654884      -0.58257671
H        2.37503656       0.71171967       0.72075271
H        4.82424607       0.20528702       0.72207271
H        4.89931756       1.43466943      -2.14316176
H        6.29090892       0.61084412      -1.23470569
H        4.68286018       3.11222327      -0.27135530
H        7.02837056       2.79246275       0.45052470
