18
Properties=species:S:1:pos:R:3 -1711.502559084068=T 10.553625=T 11.71778=T -9.4956=T -7.3387=T -11.494=T 0.9804=T 0.0731=T 3.08=T 10.75996=T -2.79406=T 9.2316503992=T 11.418056719=T 0.107861026=T pbc="F F F"
C        2.34153485      -1.25093089       0.05213478
C        1.57221488       0.00296300       0.46817211
C        2.46993373       1.18140664       0.84838901
C        1.66374732       2.45125572       1.12570946
O        3.23272823       0.77116218       1.99813881
C        4.38397847       1.56540532       2.23740685
H        1.65425454      -2.07009432      -0.20259281
H        2.99660712      -1.59345247       0.86435122
H        2.97033019      -1.05605334      -0.83060836
H        0.92109472      -0.21924971       1.33059938
H        0.91022158       0.33048991      -0.34993727
H        3.17885381       1.37454683       0.01414675
H        0.94716480       2.27594795       1.94174775
H        1.10339953       2.75230608       0.22868116
H        2.31047323       3.29325888       1.40849484
H        4.93263819       1.09053066       3.06152885
H        4.13488122       2.60055090       2.53491723
H        5.04080361       1.60507666       1.34691026
