16
Properties=species:S:1:pos:R:3 -1642.2693471788225=T 11.664705=T 12.29291=T -8.6871=T -6.707=T -9.06=T 1.062=T 0.1311=T 1.4=T 8.52188=T -0.74199=T 6.2265397242=T 0.331182374=T pbc="F F F"
C        2.03503695      -0.21969954      -0.04074669
C        0.69762665      -0.86244551       0.21535166
C       -0.44730613      -1.53114861      -0.50579087
C       -1.60340312      -0.57172789      -0.19698529
C       -1.44567891       0.68144400       0.28223129
C       -0.08438348       1.35376652       0.45664501
N        0.79981429       0.49526817      -0.30264898
H        2.62765301      -0.40958503      -0.94005159
H        2.62409924      -0.02568375       0.86797467
H        0.52297089      -0.90419794       1.30715181
H       -0.68344264      -2.53849260      -0.12297148
H       -0.27599962      -1.61158326      -1.59105671
H       -2.61879461      -0.95713900      -0.32624933
H       -2.32876619       1.27707891       0.52734623
H        0.17454353       1.44672995       1.53637690
H       -0.10700986       2.37232558       0.03227339
