19
Properties=species:S:1:pos:R:3 -1822.5813924758572=T 11.300923=T 13.02989=T -10.0901=T -7.7399=T -11.964=T 0.9035=T -0.1021=T 2.914=T 11.53536=T -2.71259=T 9.9060846448=T 10.5046270598=T 0.101523003=T pbc="F F F"
O        2.30725659      -0.11007217      -1.22345441
C        1.95750585       0.52098336       0.01974325
C        2.59637662       1.90146387       0.05649982
C        4.12794443       1.87270279       0.06191723
C        4.75324451       3.27022143       0.09312968
C        6.27951007       3.23590393       0.06088166
O        6.88194421       4.53403228       0.14804397
H        1.91784523      -0.99980979      -1.22859645
H        2.31749979      -0.08163034       0.87661134
H        0.85945889       0.61702948       0.11131073
H        2.22709065       2.42461449       0.95516937
H        2.23612204       2.47576617      -0.81424016
H        4.47699170       1.32441761      -0.82790263
H        4.47505285       1.29586878       0.93831266
H        4.43155570       3.81572378       0.99638508
H        4.38765105       3.85233473      -0.77327549
H        6.62558606       2.70150389      -0.84520488
H        6.66512171       2.68167135       0.93099685
H        6.59326205       5.04340438      -0.62952761
