15
Properties=species:S:1:pos:R:3 -1590.2981133727324=T 9.853801=T 10.96843=T -9.8932=T -7.825=T -11.268=T 0.778=T -0.2216=T 0.253=T 10.2198=T 0.397=T 4.353706397=T 12.4860349272=T 0.159273969=T pbc="F F F"
C        1.01543812      -0.06172013       0.05963745
C        2.52500762       0.05901601       0.03095092
C        3.11805655       1.22620718       0.83600653
C        4.48135000       0.68070799       1.25690396
C        4.26166013      -0.82760010       1.31459652
O        4.94338766      -1.66952143       1.85019830
O        3.11251493      -1.14183935       0.62762748
H        0.68073097      -0.94742043      -0.49572314
H        0.56235355       0.82661338      -0.40341730
H        0.65431998      -0.13957578       1.09482057
H        2.88327539       0.09520673      -1.01386485
H        2.49109160       1.41756890       1.72106218
H        3.16517690       2.14975802       0.24446573
H        5.26027562       0.87399858       0.50175499
H        4.85808097       1.04410043       2.21966068
