16
Properties=species:S:1:pos:R:3 -1640.2628904506646=T 12.412284=T 13.28764=T -9.4963=T -7.3159=T -9.597=T 1.0976=T -0.0965=T 1.283=T 9.05455=T -0.71268=T 4.369452619=T 10.6925650386=T 0.532484217=T pbc="F F F"
N        1.22759555      -0.20008319       0.30649226
C        2.33803045       0.30970348      -0.52034290
C        2.28242260      -0.44609546      -1.87592981
C        3.39706671      -0.15485786      -2.76510089
C        4.33554728       0.08169096      -3.49766095
C        2.15398761       1.79054300      -0.70884753
C        3.06969935       2.71436065      -0.40235739
H        1.22065137       0.29176882       1.20315176
H        1.37476682      -1.19112851       0.51675355
H        3.34073450       0.13508360      -0.08121777
H        1.32415224      -0.20995951      -2.36782558
H        2.26436221      -1.53014134      -1.66705158
H        5.15957421       0.29770984      -4.14619794
H        1.18166444       2.08896758      -1.11806264
H        4.04302157       2.43640804       0.00988224
H        2.88269308       3.77709990      -0.56282483
