13
Properties=species:S:1:pos:R:3 -1428.5411377387113=T 9.99735=T 10.62936=T -8.6843=T -6.642=T -8.37=T 0.9689=T -0.2173=T 0.528=T 7.88016=T -0.000260000000026=T 4.6227684156=T 6.7277531292=T 0.455644611=T pbc="F F F"
O        2.54117427      -0.63322108      -1.28288962
C        2.25769663      -0.01180263      -0.01492914
C        2.84709097       1.36016367      -0.00116330
C        2.17189520       2.54019674       0.15206968
O        3.03566060       3.60264535       0.14302967
C        4.29323011       3.07709021      -0.03064762
C        4.23555487       1.71801990      -0.12220479
H        2.25015999      -1.55954928      -1.22456055
H        2.69231880      -0.60989396       0.80801165
H        1.16837984       0.05623140       0.16025180
H        1.12220629       2.78396834       0.27778458
H        5.10074647       3.79978556      -0.06844493
H        5.07174595       1.04261577      -0.27442744
