19
Properties=species:S:1:pos:R:3 -1765.5185289054718=T 11.257311=T 12.20553=T -9.0346=T -6.8364=T -10.424=T 0.827=T -0.173=T 2.767=T 9.87807=T -2.44272=T 8.2058646268=T 13.288261543=T 0.07128225=T pbc="F F F"
C        0.90242119      -0.07040380       0.17372416
C        2.41744460       0.03379140      -0.05304231
N        3.07835394      -0.81389127       0.96043204
C        2.79708474      -0.53994362      -1.43534020
N        2.11738960       0.15007184      -2.54402229
C        2.87839941       1.50760775       0.03102961
O        2.65144304       2.09080106       1.32561815
H        0.34523061       0.54579271      -0.54723213
H        0.63780965       0.26757068       1.18720200
H        0.57822422      -1.11694099       0.08436283
H        2.95521140      -0.35926408       1.87158342
H        4.09084781      -0.80513108       0.79389846
H        2.61472402      -1.63142350      -1.39357836
H        3.88379372      -0.40451241      -1.57655193
H        1.16324559      -0.20456003      -2.64372091
H        2.58914691      -0.06619599      -3.42381163
H        2.40482421       2.10094846      -0.76801346
H        3.96973406       1.54574882      -0.12235939
H        1.73361129       2.40969406       1.34988193
