15
Properties=species:S:1:pos:R:3 -1547.2510554988048=T 10.761738=T 11.91743=T -9.2777=T -7.1955=T -10.548=T 0.6994=T -0.3429=T 1.388=T 9.92916=T -0.98031=T 5.3416640408=T 10.5202988902=T 0.204286936=T pbc="F F F"
C        0.97028062       0.02842157       0.09535933
C        2.47929903      -0.02773828       0.01682833
N        3.24354217       1.03323012       0.75714412
C        4.17739637      -0.00878688       1.28953567
C        3.22329131      -1.14772048       0.82156374
C        3.77432665      -2.27830025       0.09812962
N        4.23215895      -3.16420384      -0.50976284
H        0.52049451      -0.81664986      -0.44544632
H        0.59863778       0.95700360      -0.36192619
H        0.62218006      -0.00629592       1.13962359
H        2.80742624      -0.03295437      -1.03593511
H        2.65966450       1.38774243       1.52150056
H        5.12959793      -0.00280093       0.73942608
H        4.38237678       0.03539529       2.36694178
H        2.59684709      -1.51347220       1.65024763
