13
Properties=species:S:1:pos:R:3 -1360.2394610313938=T 12.647862=T 12.89734=T -7.9126=T -6.0286=T -8.083=T 1.0307=T -0.3649=T 0.264=T 7.63923=T 0.43529=T 4.1065527046=T 10.5350532242=T 0.214082118=T pbc="F F F"
C        0.82575760       0.13208944       0.00172982
C        2.31147837      -0.02344627      -0.02603122
C        3.28939364       0.93246185       0.00927042
N        4.60332467       0.51037452      -0.00424181
C        4.66276573      -0.79343876      -0.06072718
N        5.84043219      -1.51516609      -0.17091938
S        3.08729948      -1.60518068      -0.10601538
H        0.57340943       1.20057800       0.03947144
H        0.37483366      -0.35049862       0.88243594
H        0.34640929      -0.29412068      -0.89271348
H        3.08109175       2.00196420       0.05806472
H        5.84176626      -2.42748161       0.27815436
H        6.65289795      -0.95255531       0.07779172
