18
Properties=species:S:1:pos:R:3 -1690.44787930553=T 10.8943=T 12.09196=T -9.4833=T -7.1243=T -10.644=T 0.9344=T -0.0946=T 3.089=T 9.99722=T -2.86947=T 8.7089378218=T 13.5177720276=T 0.115071347=T pbc="F F F"
N        2.79794172      -0.71038843      -1.23409998
C        2.43242339      -0.03886878       0.01948102
C        2.91397867       1.39991894       0.01841015
O        4.34461000       1.40918948       0.04634651
C        4.88098575       2.73256314       0.02473861
C        6.39131537       2.61998137      -0.05432913
O        6.82946650       2.00606842      -1.26653489
H        2.44772506      -1.67070813      -1.22989836
H        3.81724851      -0.77771425      -1.29074725
H        2.81652485      -0.53297598       0.93488579
H        1.33357464      -0.02066782       0.09577257
H        2.51963836       1.93115044       0.90717053
H        2.55289932       1.91638302      -0.89175515
H        4.58744754       3.28374282       0.94131428
H        4.49496877       3.28421571      -0.85449192
H        6.76092298       2.06487306       0.82879085
H        6.83388746       3.62676675      -0.03422663
H        6.31868109       1.18008023      -1.34969699
