15
Properties=species:S:1:pos:R:3 -1491.2426793619202=T 10.210053=T 10.6353=T -8.5999=T -6.6135=T -9.241=T 1.1306=T -0.5306=T 0.445=T 8.73558=T 0.13806=T 5.0269627756=T 5.1861236038=T 0.136968935=T pbc="F F F"
C        1.02248970      -0.06514901      -0.00000416
C        2.55090878      -0.00612992       0.01021446
N        3.16106510      -1.11817084      -0.75732131
N        3.41850090      -0.70692458      -2.05392312
C        3.38894256       0.58942409      -2.09488932
C        3.11053071       1.22181086      -0.75193319
O        4.29579920       1.79278564      -0.16498863
H        0.59925029       0.79023688       0.54706703
H        0.66093262      -0.98294651       0.48589490
H        0.63589389      -0.04330416      -1.02954733
H        2.93502192      -0.00097135       1.04152763
H        2.67319064      -2.01336970      -0.74600312
H        3.65191434       1.12006427      -3.00853531
H        2.38699648       2.04902948      -0.77991179
H        5.02239287       1.15714485      -0.30443675
