17
Properties=species:S:1:pos:R:3 -1614.94206479634=T 11.487417=T 11.90525=T -8.8797=T -6.844=T -9.379=T 1.0497=T -0.5946=T 0.553=T 8.94916=T 0.06035=T 4.8395083422=T 5.5744601544=T 0.203126662=T pbc="F F F"
N        0.76990834       1.09725556      -1.09289256
N        2.13922172       1.20537382      -1.16927733
C        2.84738272       0.92480631      -0.13359722
C        4.33914579       1.13764836      -0.12669434
C        4.80445757       2.60193653       0.05203571
C        4.70587397       3.46430744      -1.21208232
O        3.38151985       3.80240529      -1.61025325
H        0.38271153       0.90098736      -2.01387375
H        0.43138683       0.43139857      -0.38744505
H        2.36900437       0.54112290       0.78640638
H        4.76171860       0.74694402      -1.06789161
H        4.75973270       0.52601379       0.68565180
H        5.86484118       2.58437779       0.35635976
H        4.24365632       3.08590087       0.86832902
H        5.25171601       2.95365879      -2.03355489
H        5.21838395       4.42283437      -1.03420090
H        2.88791855       2.96058824      -1.72574944
