12
Properties=species:S:1:pos:R:3 -1322.2741223024009=T 10.103456=T 11.20817=T -10.7142=T -8.4561=T -10.43=T 0.9606=T -0.3965=T 0.983=T 10.01213=T -0.65295=T 4.3706428846=T 11.0958543008=T 0.442559029=T pbc="F F F"
O        1.10553626      -0.23768894      -0.29340412
C        2.49807078      -0.13227355      -0.09007364
C        2.95904492       1.36622292      -0.04910217
C        2.29246343       2.07748309       1.04201721
C        1.67741682       2.60094174       1.94599650
C        4.42151875       1.44102904       0.05244860
N        5.58587512       1.44540443       0.10964492
H        0.66087880       0.15233534       0.48303373
H        2.98398618      -0.62102679      -0.94451356
H        2.83086582      -0.62458313       0.83948813
H        2.66327123       1.82609083      -1.00906465
H        1.15837188       3.09320503       2.74365907
