13
Properties=species:S:1:pos:R:3 -1425.212580134754=T 10.138186=T 11.45179=T -12.113=T -9.7236=T -12.013=T 0.6874=T -0.6747=T 0.512=T 11.7047=T -0.33456=T 5.3214667214=T 11.4743711602=T 0.291408034=T pbc="F F F"
C        1.07767652      -0.20359321      -0.27048682
C        2.58827570      -0.07365888      -0.10239810
C        3.05352118       1.41100524      -0.01867055
C        2.45866088       2.10405319       1.13389948
N        1.94309426       2.62708651       2.03837786
C        4.51936165       1.50933596       0.01328516
N        5.68380979       1.54713189       0.00441337
H        0.79696903      -1.26300702      -0.33411618
H        0.73062575       0.28989982      -1.19032164
H        0.53727758       0.23659978       0.57899042
H        3.11874270      -0.52460967      -0.95312031
H        2.93076182      -0.59087307       0.80514350
H        2.71086313       1.94176946      -0.92599619
