15
Properties=species:S:1:pos:R:3 -1516.3376762523972=T 10.531935=T 11.31615=T -9.3581=T -7.3846=T -10.441=T -0.0449=T -1.8879=T -0.956=T 10.0071=T 1.39304=T 3.3362524838=T 8.5771902982=T 0.228970305=T pbc="F F F"
C        1.86412088      -0.11768735      -0.08264106
C        3.34492804      -0.47713417      -0.03643338
C        4.23498693       0.65493912       0.44324935
O        3.79387300       1.75944161       0.72116621
C        5.74796112       0.40816729       0.59510830
N        6.21122249      -0.86162542       0.28899738
N        6.53698539       1.30966498       1.05859824
H        1.27161658      -0.97108321      -0.43761277
H        1.68605242       0.73395687      -0.75196568
H        1.50042887       0.16862131       0.91280260
H        3.70068588      -0.78282549      -1.03850738
H        3.53044268      -1.34812357       0.61595827
H        5.73715724      -1.38099571      -0.44246448
H        7.22685494      -0.92828068       0.25866746
H        5.96769352       2.13711442       1.28913694
