18
Properties=species:S:1:pos:R:3 -1786.6882292710163=T 11.28215=T 12.40786=T -9.2627=T -7.2861=T -10.676=T 0.6974=T -0.2658=T 0.62=T 9.59944=T 0.04029=T 4.3844673236=T 6.8128695182=T 0.117563347=T pbc="F F F"
C        2.78217860      -1.34223328      -0.03661338
C        2.44501977      -0.13199730       0.83547002
C        3.06908999       1.18606602       0.34469482
C        2.58097405       2.38243002       1.17696901
C        4.59977518       1.10873426       0.44240956
N        5.28197190       1.37454427      -0.71721948
O        5.18073642       0.84495650       1.49390080
H        2.29825113      -2.25134558       0.34736482
H        3.86578949      -1.53037967      -0.05936174
H        2.44143699      -1.19783320      -1.07412542
H        2.79165929      -0.30402598       1.86713858
H        1.35186794       0.00352367       0.88153286
H        2.77801022       1.34187821      -0.71038374
H        2.88696992       2.26005949       2.22538116
H        1.48454097       2.45357687       1.13835046
H        2.99884394       3.33027247       0.80867260
H        4.80769676       1.57287748      -1.58964124
H        6.29703743       1.35410575      -0.69686968
