17
Properties=species:S:1:pos:R:3 -1770.0548671396944=T 13.381617=T 14.95366=T -9.2858=T -7.0902=T -9.094=T 0.9699=T 0.0693=T 1.317=T 8.57282=T -0.68393=T 4.3660182068=T 10.6892794096=T 0.719255134=T pbc="F F F"
C        0.77982688       0.81046987       1.08387227
C        2.27729033       0.76869188       1.06839946
C        3.05353552       1.19002949       0.06039844
C        4.55285548       1.14361668       0.05013193
C        5.18270219       2.55542935      -0.06338354
C        6.63834870       2.52938655      -0.12291672
C        7.85068684       2.47634595      -0.16852559
H        0.35525194      -0.19959398       1.20134520
H        0.37718927       1.24508256       0.15828342
H        0.40729979       1.40531456       1.93332579
H        2.76141399       0.35040978       1.96014691
H        2.57283336       1.61005178      -0.83339867
H        4.90876412       0.54275522      -0.80367310
H        4.92600269       0.65397021       0.96239251
H        4.86011400       3.16552216       0.79651538
H        4.79119008       3.06043412      -0.96292723
H        8.91998480       2.43976381      -0.20949646
