17
Properties=species:S:1:pos:R:3 -1607.2579659636979=T 11.212379=T 12.05514=T -9.37=T -7.0941=T -10.342=T 1.1595=T -0.2928=T 0.686=T 9.71796=T 0.01399=T 5.5079416654=T 6.515402307=T 0.198124403=T pbc="F F F"
C        1.77997878      -0.21516397       1.54330386
C        2.21718192       0.21806531       0.13566818
C        2.95329087       1.53057842       0.11407785
C        2.21253372       2.81729448       0.40828847
N        1.90338244       3.50999065      -0.85914928
N        4.20249836       1.47665088      -0.19616781
O        4.79497202       2.78133744      -0.21929019
H        1.21709402      -1.15798946       1.49672790
H        1.13091134       0.53309522       2.02158830
H        2.65291158      -0.37050776       2.19311723
H        1.33117886       0.32247800      -0.51423217
H        2.86435927      -0.54990634      -0.31131024
H        2.81837626       3.41414781       1.11620779
H        1.26030775       2.57536682       0.90266640
H        2.78395145       3.82803506      -1.27313619
H        1.36057669       4.35280168      -0.65522177
H        5.71736467       2.56277574      -0.43681834
