13
Properties=species:S:1:pos:R:3 -1420.8806473148986=T 10.774018=T 10.83358=T -9.5697=T -7.5139=T -10.558=T -1.4417=T -3.2087=T -1.97=T 9.98612=T 2.2452=T 3.0425420484=T 4.7147908248=T 0.512152681=T pbc="F F F"
C        1.09092180      -0.04387748       0.03747707
C        2.58645006      -0.08832715       0.04748654
C        3.19989499      -1.45290602       0.14103522
O        2.50322895      -2.45695924       0.21474116
C        3.34090078       1.04353600      -0.02754663
C        4.81404228       1.18815320      -0.03096684
O        5.65081953       0.29850330       0.05944120
H        0.71424407       0.98290773      -0.03183406
H        0.69156524      -0.52108798       0.94475607
H        0.69859873      -0.63606915      -0.80258922
H        4.30662254      -1.49857115       0.13878587
H        2.81317519       2.00130261      -0.10016571
H        5.14279583       2.25361535      -0.12860067
