15
Properties=species:S:1:pos:R:3 -1532.6467814863968=T 11.695893=T 12.01931=T -9.0306=T -7.1797=T -9.623=T 0.4046=T -1.2898=T -0.061=T 8.95146=T 0.51581=T 4.512284491=T 5.7523800644=T 0.536229181=T pbc="F F F"
C        2.66814435      -1.04854443       0.30049827
C        2.33060407       0.20007326      -0.05365425
C        3.00744576       1.42840896       0.41591574
N        2.54419855       2.62572087       0.27690652
N        4.21017492       1.21984868       1.12293469
C        5.45773297       1.00164041       0.37359010
C        5.21382702       2.27509262       1.12137426
H        2.11556032      -1.90996850      -0.07558031
H        3.49470245      -1.23437206       0.98744768
H        1.48264448       0.36731288      -0.72473514
H        1.62621865       2.59004206      -0.18514783
H        5.39896835       1.04540317      -0.71737498
H        6.12566878       0.23888872       0.78068688
H        5.71063983       2.44022492       2.07953920
H        4.97169950       3.17099843       0.54532915
