18
Properties=species:S:1:pos:R:3 -1737.9143078070663=T 11.145284=T 12.3663=T -8.4663=T -6.2645=T -10.055=T 0.8634=T -0.1342=T 2.993=T 9.43166=T -2.71334=T 8.295407316=T 10.7205362802=T 0.133979449=T pbc="F F F"
O        2.68029207       3.53662948      -0.48108924
C        2.23677785       2.17374421      -0.58235577
C        3.03785479       1.32502382       0.39519184
C        4.53527874       1.28305721       0.11273714
C        5.43214641       2.48603788       0.50786109
N        6.41353957       1.57941880       1.19989594
C        5.44071855       0.44392307       1.05189110
H        2.15195800       4.07029701      -1.09664983
H        2.38413306       1.79340561      -1.61248855
H        1.15927824       2.09602579      -0.34498676
H        2.63002327       0.29998650       0.35640220
H        2.86545013       1.69740362       1.41987779
H        4.70686714       1.00152290      -0.94041150
H        4.94935066       3.16438031       1.22875059
H        5.84076311       3.09124672      -0.31371666
H        7.21864295       1.41790881       0.58942929
H        5.85730113      -0.48799608       0.64068043
H        4.96523432       0.21331435       2.02112088
