16
Properties=species:S:1:pos:R:3 -1631.1841056486376=T 12.257256=T 13.39495=T -8.9622=T -6.9735=T -9.542=T 0.9568=T 0.021=T 2.177=T 9.17838=T -1.7511=T 4.339138042=T 10.446626409=T 0.302231682=T pbc="F F F"
C        0.99118968       0.02666269      -0.06551607
C        2.49626470       0.00020749      -0.01795654
C        3.33396863      -0.75671573      -1.02582868
C        2.76224935      -1.50332372      -2.11160836
C        2.28208003      -2.16868136      -3.00751511
N        3.23356425       0.72164407      -1.05111045
C        4.43763656       1.42622942      -0.61866549
H        0.60963084       0.96435015       0.36472496
H        0.57190726      -0.81058687       0.51139386
H        0.63588896      -0.05145923      -1.10049372
H        2.93944403       0.01783172       0.98827666
H        4.26978641      -1.17118146      -0.62912104
H        1.86061760      -2.74259678      -3.80702767
H        4.15556454       2.43118684      -0.27262449
H        5.12041206       1.53471884      -1.47326357
H        4.97853510       0.91249394       0.20229571
