15
Properties=species:S:1:pos:R:3 -1476.2164574255612=T 10.09838=T 10.70465=T -9.0852=T -7.0087=T -10.309=T 0.8682=T -0.1983=T 0.45=T 9.90936=T 0.13498=T 5.459537531=T 6.2011225942=T 0.17382424=T pbc="F F F"
N        2.95949332      -1.00748602      -0.54517719
C        2.44787664       0.16837059       0.17232429
C        3.44809087       1.32513608       0.06795610
C        3.63239166       1.85331644      -1.35962637
C        2.83439936       3.12310796      -1.27049731
N        2.46128786       3.44590371      -0.08359947
O        2.90754763       2.46689706       0.82580107
H        2.22530291      -1.71309368      -0.62648416
H        3.71600534      -1.44405957      -0.01143376
H        2.22688964       0.00258824       1.24323961
H        1.50766458       0.48539276      -0.30683713
H        4.40045886       1.05626036       0.55103575
H        3.25211192       1.13824078      -2.10395768
H        4.68204053       2.06945087      -1.61724071
H        2.57959888       3.78735445      -2.09580304
