14
Properties=species:S:1:pos:R:3 -1438.614553894964=T 10.645499=T 11.55045=T -9.5012=T -7.346=T -9.755=T 0.8795=T -0.1458=T 2.083=T 9.4197=T -1.67754=T 4.3683119478=T 11.0415980272=T 0.302402872=T pbc="F F F"
N        0.87821473       0.03325743       0.21436447
C        2.32522132      -0.01676779      -0.00705766
C        3.07627178       1.01934098       0.88304993
O        3.60573978      -0.02557489       1.74391078
C        3.16359460      -1.05564470       0.82160286
C        2.61637502       0.01162953      -1.43353034
C        2.88272092       0.00376728      -2.61752611
H        0.68174022      -0.10344566       1.20975120
H        0.42078961      -0.72779112      -0.29406864
H        2.41611607       1.71622963       1.42210749
H        3.87466735       1.56961172       0.36079114
H        4.00668584      -1.50206349       0.26898003
H        2.57235432      -1.84009982       1.32126146
H        3.11539842       0.00951090      -3.66286661
