18
Properties=species:S:1:pos:R:3 -1762.3961022584974=T 10.915102=T 11.8895=T -8.9609=T -6.76=T -10.592=T 0.811=T -0.1713=T 2.991=T 10.02066=T -2.74814=T 8.5598322582=T 10.6503106098=T 0.155346756=T pbc="F F F"
N        0.99196866       0.02739368       0.12084418
C        2.46548592       0.01655960       0.04879694
C        2.94180894      -1.32440929      -0.53919568
C        2.61353732      -1.43747085      -2.02825162
O        3.17110156      -0.34750776      -2.77280456
C        2.61594706       0.89669927      -2.32888337
C        2.94434961       1.16377899      -0.85969362
H        0.67268368       0.90649826       0.53593511
H        0.67091930      -0.71715986       0.74504123
H        2.93988731       0.14420848       1.04349473
H        2.48279525      -2.16476396       0.00918172
H        4.03226892      -1.40509470      -0.40390642
H        3.04925681      -2.35048759      -2.45862901
H        1.51715163      -1.46658411      -2.17530729
H        3.05362348       1.66996780      -2.97630895
H        1.51961632       0.88993719      -2.47894946
H        4.03504390       1.27369938      -0.74901990
H        2.48741435       2.11666548      -0.54217404
