17
Properties=species:S:1:pos:R:3 -1808.7723844964685=T 13.369263=T 13.478=T -7.9475=T -5.9165=T -7.865=T 0.9405=T -0.5095=T 0.528=T 7.38402=T 0.06563=T 4.7381993816=T 0.598138841=T pbc="F F F"
C        0.95362868      -0.10806912      -0.20776468
C        2.38315929       0.06050053       0.20899363
C        3.09709667       1.20735122       0.19538045
C        4.56130647       1.34046730       0.61604134
C        4.86748142       2.86235954       0.57879781
C        3.62009087       3.46316580      -0.01437058
C        2.65475560       2.53957291      -0.20911455
H        0.86321408      -0.83031561      -1.03610508
H        0.49465408       0.83404689      -0.53398040
H        0.34332451      -0.50820520       0.61888699
H        2.88779616      -0.84756601       0.55806806
H        5.20697846       0.79841489      -0.09194345
H        4.73868499       0.90430863       1.60928892
H        5.76410354       3.09880820      -0.01736493
H        5.05673040       3.27177733       1.58671925
H        3.51969711       4.52736749      -0.23272506
H        1.66398767       2.75825521      -0.60768775
