14
Properties=species:S:1:pos:R:3 -1476.0870831908635=T 13.416108=T 13.66441=T -7.4326=T -5.5844=T -7.643=T 0.9686=T -0.2156=T 0.455=T 7.20459=T 0.17984=T 4.0119141908=T 11.5257881544=T 0.396683256=T pbc="F F F"
C        0.79929396       0.15304214      -0.00503374
C        2.29171397       0.05836667      -0.03601941
C        3.23060736       1.05634618       0.01461670
C        4.58464118       0.59894856       0.00152618
C        4.68551086      -0.77153474      -0.06649791
N        5.82808309      -1.57390362      -0.19552941
S        3.09178754      -1.50721705      -0.13534979
H        0.50325663       1.21012673       0.03657525
H        0.36807000      -0.34985941       0.87481807
H        0.33380321      -0.28882028      -0.89979037
H        2.95501339       2.10983842       0.07632466
H        5.45191994       1.25747264       0.04876871
H        5.80717631      -2.41578831       0.37937149
H        6.68265255      -1.05090794      -0.00810041
