17
Properties=species:S:1:pos:R:3 -1674.6391534733832=T 13.966732=T 13.5188=T -7.762=T -5.9335=T -8.336=T 0.8734=T -0.6789=T -0.034=T 7.83894=T 0.59213=T 4.636332484=T 0.537339121=T pbc="F F F"
C        0.96439831      -0.15617616      -0.21565366
C        2.43886320       0.07445650      -0.12860592
C        3.09630127       1.23923270       0.10553477
C        2.43579486       2.57239552       0.33295096
C        4.55296182       1.20688605       0.14155368
N        5.25592732       2.27288521       0.34817423
N        6.61722418       2.12700937       0.44433749
H        0.64024264      -0.90205995       0.52929894
H        0.69021864      -0.56968337      -1.20066433
H        0.37339417       0.75417561      -0.05809328
H        3.05786791      -0.81929244      -0.27304203
H        1.34343419       2.51285914       0.27580338
H        2.78847522       3.30516575      -0.40758407
H        2.71670880       2.97426238       1.31757796
H        5.03863197       0.22423964      -0.01402096
H        7.08610300       2.99194089       0.18294459
H        7.00983247       1.31285317      -0.04626175
