10
Properties=species:S:1:pos:R:3 -1157.245439068877=T 9.080332=T 8.80267=T -9.9723=T -8.0671=T -10.353=T -1.1078=T -2.862=T -1.817=T 9.86919=T 2.08691=T 3.8345026234=T 6.6681654576=T 0.470612632=T pbc="F F F"
O        0.99125567      -0.12027277      -0.24691353
C        2.18302013       0.01194734      -0.08094268
O        2.96026761      -1.18020480       0.02544665
N        4.33984173      -1.19442175       0.22313049
C        4.93026814      -0.03722466       0.31083745
C        4.26928201       1.23105565       0.21803764
C        2.92775728       1.25502550       0.02549073
H        6.00872391      -0.10926299       0.46540908
H        4.85255056       2.14949757       0.30269689
H        2.35201296       2.17624093      -0.05601273
