15
Properties=species:S:1:pos:R:3 -1526.2711882905069=T 10.479438=T 11.47343=T -8.816=T -6.7265=T -9.226=T 0.9125=T 0.0314=T 1.096=T 8.6662=T -0.53439=T 6.1402082724=T 0.34589321=T pbc="F F F"
C        1.66780749       0.11513913      -1.18059579
O        2.97066782       0.21953931      -0.60352211
C        3.38142651       1.48111992      -0.25987884
C        2.69468424       2.62665177      -0.40310469
C        4.75501725       1.40089291       0.32460559
C        5.92455879       1.99488865      -0.35855207
O        5.33942509       2.61926121       0.80012983
H        1.50876894      -0.95065697      -1.37785414
H        1.60772976       0.68228218      -2.12368946
H        0.89885554       0.48533871      -0.48310525
H        1.70089861       2.67494855      -0.84036111
H        3.15852352       3.54742292      -0.05664697
H        4.92474252       0.52288140       0.95974240
H        5.76048101       2.52444221      -1.30242375
H        6.91805290       1.56110810      -0.20332365
