13
Properties=species:S:1:pos:R:3 -1317.7959160487892=T 12.813894=T 12.7369=T -8.4158=T -6.5215=T -8.686=T 0.3328=T -1.2994=T -0.093=T 8.28394=T 0.61006=T 3.693976891=T 11.5712166248=T 0.384096504=T pbc="F F F"
N        0.97151673       0.21011824      -0.30572033
N        2.31411040       0.18258579      -0.47040466
C        3.03470688       0.88322546       0.35574340
C        4.43719513       0.96900381       0.21566637
C        5.65204826       1.09675562       0.18476781
C        7.09359030       1.25431474       0.04894313
O        7.48243345       2.44417202      -0.66016176
H        0.51922435      -0.59748167      -0.72503235
H        0.60874963       0.46507618       0.62071277
H        2.57014608       1.43911037       1.19036045
H        7.51238118       0.35209805      -0.43607514
H        7.56377658       1.33659958       1.04134933
H        6.92882102       2.49266182      -1.46061900
