17
Properties=species:S:1:pos:R:3 -1660.5870321292857=T 10.382619=T 11.2298=T -9.1766=T -6.9353=T -10.568=T 0.935=T -0.0387=T 3.271=T 9.90464=T -2.99255=T 8.6435352068=T 11.8977089586=T 0.120459416=T pbc="F F F"
N        0.99966812       0.01870014      -0.09727125
C        2.46361772      -0.00800157       0.02617377
C        3.00231302       1.13423280       0.89775280
C        4.42813679       0.68053317       1.25723271
C        4.36228257      -0.87598819       1.30932382
C        2.95922136      -1.25489806       0.77570553
H        0.68592631      -0.77438404      -0.66353657
H        0.71084186       0.85691234      -0.60916399
H        2.98221349       0.03797941      -0.95716890
H        2.36758454       1.20097269       1.79738730
H        2.97573490       2.11334882       0.39537797
H        5.13498193       1.00302104       0.47687881
H        4.77830398       1.11976424       2.20193535
H        5.15775625      -1.31813277       0.69193188
H        4.51091863      -1.25579860       2.33014843
H        2.97059139      -2.15618292       0.14420552
H        2.25866717      -1.44107851       1.60615681
