18
Properties=species:S:1:pos:R:3 -1743.2665399658372=T 12.005384=T 12.89295=T -8.4306=T -6.4512=T -9.031=T 0.9206=T -0.0751=T 1.271=T 8.57211=T -0.69636=T 6.0909734318=T 0.306711303=T pbc="F F F"
C        3.96066207      -1.00088278       0.74882472
O        2.89383140      -0.30449914       0.10212981
C        3.11455955       1.01690322      -0.16946685
C        4.22110903       1.73728691       0.08048547
C        4.39312920       3.19991457      -0.24943367
C        3.14371428       3.87226897      -0.83381770
N        4.93723951       3.87068826       0.95256575
H        3.61038735      -2.02930190       0.89111451
H        4.19208242      -0.54701149       1.72647336
H        4.86927677      -1.00006119       0.12449561
H        2.22983853       1.43849689      -0.64958848
H        5.08710915       1.28372852       0.56580660
H        5.19494075       3.27243551      -1.00969934
H        2.30384748       3.82996493      -0.12282390
H        2.82427064       3.40132241      -1.77619780
H        3.35195087       4.93051483      -1.04720245
H        4.22768611       3.85065124       1.69233766
H        5.10810489       4.85862024       0.74331670
