17
Properties=species:S:1:pos:R:3 -1664.2264378560983=T 11.897299=T 12.81509=T -9.2644=T -7.0537=T -9.399=T 0.9399=T -0.0402=T 1.368=T 8.8795=T -0.78294=T 6.6152234356=T 0.479891079=T pbc="F F F"
N        1.02841513       0.27491621       0.11510278
C        2.44883597      -0.04220974      -0.07741511
C        2.69666714      -0.77607091      -1.37145029
C        1.78516314      -1.02768850      -2.31769808
C        3.24389718       1.25818893      -0.06589088
C        3.78528091       1.83097576       1.19798128
N        4.67995255       1.13494936       0.24590743
H        0.90887334       0.75413383       1.01047156
H        0.48762829      -0.59187366       0.17212626
H        2.88037618      -0.66927178       0.73341033
H        3.73249933      -1.10373090      -1.50444753
H        0.75113805      -0.69326249      -2.21645920
H        2.05540426      -1.56255146      -3.22917507
H        2.93880333       1.96703107      -0.84290715
H        3.63434104       1.29939803       2.14193831
H        3.84474443       2.91873960       1.28489365
H        5.21217973       1.82144666      -0.29671829
