19
Properties=species:S:1:pos:R:3 -1928.8757805933135=T 14.092072=T 15.45046=T -8.8745=T -6.8034=T -8.679=T 1.4487=T 0.002=T 1.113=T 8.31767=T -0.68935=T 5.887289231=T 0.716103824=T pbc="F F F"
C        0.81587088       0.85395347       1.06139874
C        2.30980210       0.79472583       0.96019264
C        3.04167854       1.37557847      -0.00062249
C        4.54534975       1.32718905      -0.09767167
C        5.16819038       2.69659687       0.00026015
C        5.88211063       3.29133538      -0.96557688
C        6.48821019       4.65873526      -0.87347840
H        0.37269105      -0.15448956       1.02499193
H        0.38016519       1.44798105       0.24583071
H        0.49731937       1.29968445       2.01763701
H        2.82995889       0.22375949       1.74027762
H        2.53217737       1.95579161      -0.78036577
H        4.84429601       0.86611579      -1.05532386
H        4.93525324       0.67904534       0.70658506
H        4.98897794       3.23627483       0.93879494
H        6.04764110       2.74606899      -1.90387476
H        6.27565880       5.12908125       0.09680708
H        6.10338517       5.32060034      -1.66624926
H        7.58193339       4.62057209      -1.00343279
