14
Properties=species:S:1:pos:R:3 -1452.2009244814592=T 9.339586=T 10.21739=T -9.1647=T -7.0841=T -10.397=T 0.8953=T -0.8129=T 0.353=T 9.59345=T 0.41473=T 3.7477372206=T 8.1352669984=T 0.123682727=T pbc="F F F"
C        0.91730991      -0.01252014       0.07961754
C        2.43588978       0.04926414       0.01592648
C        3.23167424       1.09792996       0.85984634
C        4.22188093      -0.00763630       1.33427793
C        3.24461485      -1.03987462       0.74954368
O        3.08851918      -2.23010496       0.90392944
H        0.54662852      -0.92321829      -0.41102092
H        0.46235507       0.85514925      -0.41925871
H        0.56899935      -0.02820755       1.12299171
H        2.77753695       0.07263532      -1.03469449
H        2.62735887       1.49284728       1.68819699
H        3.66812663       1.93584477       0.30333702
H        5.17948033      -0.00688291       0.79169025
H        4.42888540      -0.10156597       2.40901672
