13
Properties=species:S:1:pos:R:3 -1440.2928498971173=T 9.345203=T 10.14942=T -9.0468=T -6.9797=T -10.547=T -0.771=T -2.6922=T -1.489=T 10.16993=T 1.80791=T 2.6605907768=T 12.0277702726=T 0.306574784=T pbc="F F F"
O        1.12972863      -0.04131345       0.51898162
C        2.28798020       0.02123478       0.16558596
C        3.17124834       1.24791673       0.02643425
C        4.32222099       0.81290930      -0.90498422
C        4.53435304      -0.68837919      -0.61744129
C        3.16179744      -1.21950699      -0.24560793
O        2.76745156      -2.36617806      -0.24980257
H        3.55406781       1.48574592       1.03527628
H        2.59963501       2.12052501      -0.31424195
H        4.01694178       0.94686241      -1.95383765
H        5.23364335       1.40419551      -0.75346901
H        4.98012408      -1.26242733      -1.43965941
H        5.18451778      -0.82902464       0.26479592
