10
Properties=species:S:1:pos:R:3 -1148.7664249660227=T 10.992102=T 10.39716=T -9.6883=T -7.7159=T -9.556=T -0.9755=T -2.6895=T -1.324=T 9.10661=T 1.83884=T 3.3325453024=T 4.2636801624=T 0.451615992=T pbc="F F F"
O        0.98836815      -0.24196677      -0.06947817
C        2.20126331      -0.08081855      -0.03748422
C        2.86193485       1.22650831      -0.04043463
C        4.21615126       1.30486265      -0.00235814
C        4.96157978       2.50016737      -0.00066194
C        5.63803492       3.51290978       0.00203930
H        2.90099190      -0.95696849      -0.00269110
H        2.23104595       2.11700424      -0.07359057
H        4.79096470       0.37055668       0.03009243
H        6.22476519       4.40914476       0.00409704
