17
Properties=species:S:1:pos:R:3 -1598.4824152596664=T 11.322571=T 12.01452=T -9.2941=T -7.2477=T -10.275=T 0.8321=T -0.1086=T 0.806=T 9.64658=T -0.30978=T 4.9359198558=T 8.9225533012=T 0.30134032=T pbc="F F F"
C        3.80687460      -3.02484102       2.12537653
C        2.34379785      -2.57736113       2.15982934
C        1.83978094      -2.20058469       0.77683801
O        0.45846626      -1.78900013       0.91508129
N       -0.06730904      -1.48030259      -0.36783848
C       -1.17252455      -2.26171839      -0.73343281
N       -1.57352902      -3.37236457      -0.24602965
H        4.15704658      -3.29397418       3.13097683
H        4.46342922      -2.22702490       1.74684368
H        3.94309191      -3.90490690       1.47912070
H        2.22543093      -1.71241356       2.83157111
H        1.71003426      -3.38257576       2.56423846
H        1.89830317      -3.05460044       0.08023294
H        2.42929005      -1.36833588       0.35190251
H       -0.24258758      -0.47132535      -0.41451210
H       -1.67620977      -1.82571836      -1.61001974
H       -1.00171580      -3.60982215       0.57933137
