19
Properties=species:S:1:pos:R:3 -1912.0976047110082=T 12.887261=T 14.35829=T -9.846=T -7.5902=T -9.701=T 0.9516=T -0.0045=T 2.366=T 9.34661=T -1.92744=T 4.312047101=T 10.3780125566=T 0.402598807=T pbc="F F F"
C        2.83129824      -0.90985000      -1.05312685
C        2.44503927      -0.00893856       0.11906646
C        3.01471610       1.42758167       0.02738631
C        2.47046540       2.32384491       1.16625212
C        2.89613184       3.78805433       1.06597775
C        4.47821283       1.41724161       0.01378304
C        5.69297423       1.39541977       0.03029508
H        2.40468233      -1.91561920      -0.93213841
H        3.92316758      -1.01125843      -1.13071619
H        2.46305452      -0.50298359      -2.00758107
H        2.78559642      -0.45696605       1.06714243
H        1.34738298       0.07333023       0.18361016
H        2.67782494       1.86320750      -0.93410059
H        2.80082466       1.90029409       2.12906801
H        1.37045402       2.25028452       1.14837912
H        3.99075900       3.88423233       1.09756747
H        2.47925741       4.37576388       1.89600320
H        2.54625700       4.24190147       0.12582060
H        6.76365122       1.38025952       0.03574133
