13
Properties=species:S:1:pos:R:3 -1292.5716707846238=T 11.471932=T 12.617=T -10.1456=T -8.0179=T -10.141=T 0.7746=T -0.4831=T -0.227=T 9.8929=T 0.62069=T 4.3672580668=T 10.8585450968=T 0.385410159=T pbc="F F F"
C        1.06838443       0.14144959      -0.00104412
S        2.85554895      -0.09493922       0.00649025
O        3.22860179      -0.69190355       1.29522551
O        3.23727958      -0.70798415      -1.27211473
C        3.44660248       1.66487705      -0.00253239
C        4.88811066       1.72374816       0.00179053
C        6.09970532       1.76102975       0.00554636
H        0.77694118       0.66960413      -0.91549748
H        0.77078009       0.68104493       0.90470533
H        0.64720080      -0.87094278       0.00389577
H        3.01308167       2.13101451       0.89477491
H        3.01896198       2.11977526      -0.90839281
H        7.17025107       1.78890632       0.00892286
