14
Properties=species:S:1:pos:R:3 -1384.6619725789985=T 10.051908=T 10.73029=T -8.6936=T -6.6946=T -9.551=T 1.0282=T 0.0263=T 0.972=T 8.74458=T -0.44349=T 4.9457519456=T 5.9959753586=T 0.241895105=T pbc="F F F"
N        1.27305636       1.17274637      -1.80404399
C        2.51648530       1.40013739      -1.56428463
N        3.29197715       0.51119441      -0.85363403
C        4.51965602       0.90546425      -0.22244384
C        5.66596930      -0.07530282      -0.23656094
C        5.72783829       1.16443576      -1.09492542
H        0.88959498       1.91795400      -2.39389029
H        3.09391730       2.27539389      -1.90940669
H        2.76153924      -0.24239891      -0.41499115
H        4.42883692       1.52988236       0.67453387
H        5.49190168      -1.02357490      -0.74508691
H        6.29692580      -0.13062108       0.65004247
H        6.40049392       1.97026565      -0.80227012
H        5.59640774       1.03340362      -2.16872833
