12
Properties=species:S:1:pos:R:3 -1307.0028542504247=T 8.555255=T 9.3423=T -10.3461=T -8.1899=T -11.333=T 0.9375=T -0.2052=T 0.29=T 10.38853=T 0.29187=T 4.6499461468=T 13.1502279292=T 0.179899705=T pbc="F F F"
O        1.47049320       0.33693502       0.56064304
C        2.47417312       0.01152090      -0.01446914
O        2.56589513      -1.15195087      -0.75979401
C        3.90359596      -1.31245202      -1.27778846
C        4.60573482      -0.00753080      -0.94729417
C        3.98463672       1.25514530      -1.40952518
N        3.71832532       0.74035965      -0.02855364
H        4.37915475      -2.16133824      -0.76420427
H        3.83478237      -1.53053667      -2.35340218
H        5.66206213      -0.03621295      -0.67545281
H        4.56949295       2.17532727      -1.42907579
H        3.16642353       1.19734342      -2.13215339
