21
Properties=species:S:1:pos:R:3 -2020.4318501293071=T 12.444692=T 14.32587=T -9.9873=T -7.7811=T -11.902=T 0.8926=T -0.0588=T 2.876=T 11.4186=T -2.61997=T 9.7192873372=T 10.8769446192=T 0.10309649=T pbc="F F F"
C        0.93430723      -0.04638329      -0.08634709
C        2.45950579       0.02578700       0.00880816
C        2.99772436       1.45902783      -0.02401567
C        4.52269262       1.53832701       0.07119406
C        5.08207791       2.96407400      -0.00743151
C        6.59355174       3.00872755       0.20806959
O        4.71625230       3.61392755      -1.24151349
H        0.57564302      -1.08548630      -0.05779815
H        0.57312649       0.40662351      -1.02252569
H        0.45809535       0.49415077       0.74634719
H        2.90812668      -0.54907750      -0.82054467
H        2.79534830      -0.47019780       0.93662916
H        2.55283044       2.03436592       0.80829385
H        2.66826935       1.96042732      -0.94903738
H        4.98080776       0.93660691      -0.73796303
H        4.86145527       1.08025895       1.01761146
H        4.58996891       3.58024379       0.76524830
H        7.11366237       2.39759459      -0.54832315
H        6.86635024       2.61459776       1.19824008
H        6.96118122       4.04071440       0.12995813
H        5.18347265       3.14972003      -1.96019016
