14
Properties=species:S:1:pos:R:3 -1486.7707123243322=T 11.179761=T 11.87577=T -10.0108=T -7.8856=T -9.633=T -0.0124=T -1.6411=T -0.213=T 9.13644=T 0.72944=T 5.0260452792=T 5.2346393256=T 0.264334825=T pbc="F F F"
C        0.88800443       0.33297904       0.26730999
C        2.35426671       0.03998807       0.06081927
C        2.92529822      -1.17488516      -0.11856911
C        2.22984554      -2.49843800      -0.19217043
O        2.63314826      -3.23904375      -1.35317989
C        3.20987723       1.19129391       0.07943974
N        3.86997576       2.15717002       0.09800115
H        0.55278726       1.11775290      -0.42503597
H        0.71347297       0.70756631       1.28665920
H        0.26749548      -0.55738717       0.11968322
H        4.00991945      -1.22218584      -0.25055676
H        1.13262375      -2.39636156      -0.14429834
H        2.53593871      -3.12246941       0.66331368
H        2.41621625      -2.70035936      -2.13538575
