16
Properties=species:S:1:pos:R:3 -1589.520592865653=T 10.169203=T 11.10196=T -9.5788=T -7.4735=T -10.732=T 0.5817=T -0.502=T 0.36=T 10.05161=T 0.2584=T 4.3244333024=T 12.6631489282=T 0.209167597=T pbc="F F F"
C        1.73792282      -0.97082746       0.16161337
N        3.10070398      -0.73685219      -0.33142719
C        3.55825353       0.65707261      -0.16722700
C        5.05590565       0.77101961      -0.46767872
C        5.97131675      -0.08283370       0.42300778
O        5.45589835      -1.26729429       0.81980941
O        7.09282691       0.27126737       0.73060080
H        1.44736275      -2.00849298      -0.04673944
H        0.98903375      -0.29485906      -0.29093654
H        1.71853121      -0.82492774       1.25073980
H        3.14969682      -0.98632016      -1.32406626
H        3.36928255       0.93772683       0.88163212
H        2.98499661       1.36324601      -0.79779007
H        5.38847134       1.81213524      -0.37110012
H        5.25340533       0.47734046      -1.51358011
H        4.51136165      -1.32766054       0.44733216
