17
Properties=species:S:1:pos:R:3 -1684.4463184186031=T 11.501532=T 11.91534=T -8.1694=T -6.1998=T -8.897=T 0.8831=T -0.0609=T 0.869=T 8.36799=T -0.24499=T 4.7310825852=T 10.6561131546=T 0.18071758=T pbc="F F F"
C        0.93779969       0.02953276      -0.13446205
C        2.45257211      -0.00316761       0.13294120
C        3.15909744       1.30756762      -0.26844020
C        3.60641892       1.22188706      -1.72752087
N        4.50294641       0.07519380      -1.86255821
N        4.03632355      -1.15280968      -1.45136209
C        3.10790548      -1.18223783      -0.55183760
H        0.45220768       0.80425270       0.47828524
H        0.46887408      -0.93634278       0.10455641
H        0.72854151       0.24503547      -1.19301416
H        2.58875637      -0.15341811       1.22001166
H        2.49054416       2.16917831      -0.12007763
H        4.04905644       1.46450955       0.35953296
H        4.15097557       2.12522793      -2.03765227
H        2.71833848       1.11229599      -2.38420807
H        4.93496922      -0.02386998      -2.77867814
H        2.80399290      -2.18727520      -0.23975618
