13
Properties=species:S:1:pos:R:3 -1330.1488452801027=T 12.767596=T 13.18706=T -7.9069=T -6.1207=T -8.788=T 0.7085=T -0.8678=T -0.117=T 7.85228=T 0.89004=T 3.117565977=T 10.8010651872=T 0.877879316=T pbc="F F F"
S        1.53428342       0.43993908       0.93265520
C        2.90960708      -0.01486365       0.12822532
N        3.12642349      -1.20763271      -0.49510019
C        4.44225815      -1.35389291      -1.10345201
C        5.00394318       0.04827010      -0.91518051
C        4.25185232       1.20737984      -1.45687317
N        4.07676789       0.81141883      -0.02884913
H        2.42242036      -1.93886098      -0.46256999
H        5.05858083      -2.09278003      -0.56442292
H        4.37233817      -1.66365376      -2.15907677
H        6.06566869       0.15012444      -0.68490901
H        4.76053548       2.16254412      -1.59543473
H        3.40995096       1.01524762      -2.12699209
