15
Properties=species:S:1:pos:R:3 -1431.8491049338065=T 9.417075=T 10.23947=T -8.7802=T -6.5635=T -10.21=T 0.8925=T -0.0828=T 3.074=T 9.65257=T -2.79713=T 8.2017110958=T 14.1238279942=T 0.126753278=T pbc="F F F"
C        2.07010961      -0.49485827      -1.32796458
O        2.23640843       0.07495817      -0.03422625
C        3.03032483       1.24410452      -0.05937735
C        2.41415341       2.59455922      -0.51629462
N        2.97233083       3.26907346       0.70830693
C        3.24057389       1.91320808       1.30745017
H        1.48036551      -1.41161605      -1.20264356
H        3.04553821      -0.75159214      -1.78364285
H        1.53116034       0.18660224      -2.01156511
H        3.99005357       1.04493216      -0.57878229
H        1.31260737       2.57930870      -0.47285622
H        2.73551317       3.01612663      -1.47959801
H        3.86725441       3.70251927       0.46409351
H        4.21589909       1.78584868       1.79747983
H        2.44068733       1.64303534       2.01490040
