11
Properties=species:S:1:pos:R:3 -1257.6518759202793=T 9.728812=T 10.64298=T -9.8754=T -7.682=T -10.262=T -1.0263=T -3.1261=T -2.035=T 9.87262=T 2.3394=T 2.698493297=T 10.8428732664=T 0.641068453=T pbc="F F F"
O        3.05342652      -1.27009014       0.02205615
C        2.35594892      -0.28000608      -0.06361554
C        2.90962046       1.15774760      -0.08802626
O        2.12071491       2.07925896      -0.17606492
C        4.42674609       1.28112076       0.00153666
C        4.92870916       2.63993063       0.00040215
C        5.34193033       3.77926299      -0.00097238
H        1.24123630      -0.31398216      -0.13320747
H        4.84959502       0.69330689      -0.83301874
H        4.74698903       0.73083618       0.90411735
H        5.70080327       4.78814438      -0.00279699
