13
Properties=species:S:1:pos:R:3 -1254.5545501181407=T 10.05689=T 11.27852=T -10.4596=T -8.5192=T -10.321=T 0.9078=T -0.1974=T -0.322=T 9.77895=T 0.78868=T 4.945615561=T 11.8738540522=T 0.111690455=T pbc="F F F"
C        0.94138632       0.10516935       0.05427108
C        2.42835018      -0.05674684      -0.04963341
O        3.16603501       0.88686862       0.75580958
C        4.22510954       0.07665166       1.27283198
S        3.25713931      -1.46665617       0.88416770
O        2.44711824      -1.90329105       2.03086029
O        3.97046877      -2.42941467       0.03493740
H        0.43754505      -0.64114436      -0.57440170
H        0.65319490       1.10317820      -0.30529781
H        0.61020848      -0.01324542       1.09361534
H        2.80827558      -0.09569516      -1.08556869
H        5.14244024       0.09748860       0.66376819
H        4.40896837       0.27156725       2.33613006
