13
Properties=species:S:1:pos:R:3 -1413.1656297598217=T 11.231931=T 12.39065=T -10.0167=T -7.7536=T -9.779=T 1.0229=T -0.0746=T 1.713=T 9.48001=T -1.43992=T 4.3278801132=T 10.6579853432=T 0.588059351=T pbc="F F F"
O        1.06525912      -0.21016846      -0.25850417
C        2.46926742      -0.11556084      -0.10766862
C        2.95668731       1.37082453      -0.06437596
C        2.30223842       2.07084357       1.04553809
C        1.69303342       2.58113368       1.96243678
C        4.41708240       1.43266884       0.01079461
C        5.62876642       1.42392790       0.05586007
H        0.66051248       0.22591376       0.51583577
H        2.91742346      -0.60083559      -0.98484777
H        2.83023968      -0.62524432       0.80261098
H        2.62675177       1.84312273      -1.00821179
H        1.18502131       3.06443861       2.77233246
H        6.69878681       1.43571558       0.09915955
