18
Properties=species:S:1:pos:R:3 -1745.7759149594447=T 11.282807=T 12.61684=T -9.2124=T -7.0196=T -10.363=T 0.8597=T -0.0951=T 2.821=T 9.8276=T -2.53278=T 8.1800879374=T 0.090264333=T pbc="F F F"
C        2.38773002      -0.57428650      -1.53934513
C        2.50356100      -0.06408594      -0.10076792
C        3.39831967       1.15083104       0.03061108
O        2.88291350       2.32802835      -0.67335720
C        3.20888701       3.17723365       0.46393792
C        3.43628256       1.95139651       1.36653321
N        4.58758794       1.98659302       2.24587273
H        1.72494327      -1.44896985      -1.59923487
H        3.37046386      -0.86888001      -1.93758709
H        1.97963550       0.20756750      -2.19419429
H        2.91203648      -0.85507527       0.55313695
H        1.50521824       0.19391867       0.29059795
H        4.42467587       0.91790617      -0.32699297
H        4.13582744       3.75523734       0.28913149
H        2.38823181       3.86586342       0.71559324
H        2.54332386       1.72910014       1.97120339
H        5.45531540       2.04065257       1.70606599
H        4.64073656       1.14308920       2.82005553
