17
Properties=species:S:1:pos:R:3 -1713.4247073981185=T 10.661552=T 12.06029=T -10.0448=T -7.9688=T -11.401=T 1.0903=T 0.0389=T 0.162=T 10.29913=T 0.46264=T 4.421774711=T 12.1768882348=T 0.207110916=T pbc="F F F"
C        0.37479485      -0.62329129      -0.04430082
C        1.89315368      -0.60306587       0.14614030
C        2.46899823       0.78126619      -0.12204472
O        3.92109214       0.78851206      -0.01585346
C        4.42971389       1.05425895       1.22315548
C        5.93807770       1.04754215       1.18529061
O        3.74965985       1.27822383       2.20793282
H       -0.03157301      -1.62587472       0.14592772
H        0.09317808      -0.33929692      -1.06982027
H       -0.12352604       0.07408476       0.64554674
H        2.37253380      -1.32742737      -0.53139934
H        2.14830461      -0.89921771       1.17505413
H        2.05859522       1.52082425       0.58025376
H        2.26794702       1.10218416      -1.15413158
H        6.30768327       0.13044134       0.70906676
H        6.32755664       1.13289758       2.20378825
H        6.29440007       1.89502860       0.58326363
