17
Properties=species:S:1:pos:R:3 -1678.2341610557462=T 12.305866=T 13.33779=T -8.3627=T -6.418=T -9.186=T 1.0382=T 0.0632=T 1.073=T 8.45242=T -0.46564=T 4.8178231908=T 5.7980689054=T 0.243410106=T pbc="F F F"
C        0.49728223       1.52897049       1.40029644
N        1.85103432       1.12130176       1.07932550
C        2.61187720       1.99952960       0.54330786
N        3.89043992       1.71010525       0.10613495
C        4.88007689       2.74325655      -0.02737385
C        5.85315218       2.63889418      -1.17555854
C        4.77115358       3.69097209      -1.20079766
H       -0.22371558       0.91140238       0.84009376
H        0.28359080       2.59403236       1.17637202
H        0.29783365       1.35437736       2.46975659
H        2.30748585       3.04568071       0.34475306
H        4.22472625       0.79367830       0.40535788
H        5.27265784       3.17113182       0.90331942
H        5.73138976       1.78521571      -1.84227513
H        6.88229693       2.95034843      -0.99877067
H        5.05014066       4.73182502      -1.03801727
H        3.93804752       3.53264799      -1.88516438
