12
Properties=species:S:1:pos:R:3 -1263.5899073024752=T 8.311997=T 9.11269=T -9.7155=T -7.5238=T -11.112=T -0.729=T -2.8423=T -1.919=T 10.44085=T 2.18387=T 2.727258049=T 7.2114473124=T 0.216303614=T pbc="F F F"
C        0.91160605      -0.22597657       0.11990730
C        2.38160080       0.11670941      -0.08118830
C        2.64989459       1.58749916      -0.25938211
O        1.80261777       2.46879379      -0.23319891
C        4.11188702       2.02013266      -0.49330776
O        5.04972986       1.24952552      -0.53619554
H        0.78184259      -1.30872200       0.24446605
H        0.30939017       0.09787580      -0.73945199
H        0.50638713       0.27588033       1.00856181
H        2.81691880      -0.40107611      -0.95397757
H        3.00860503      -0.22522656       0.76154890
H        4.21969018       3.12645457      -0.61894190
