16
Properties=species:S:1:pos:R:3 -1677.823150107935=T 11.291513=T 13.01034=T -10.5245=T -8.3504=T -11.296=T 0.7914=T -0.1815=T 1.469=T 10.98764=T -1.08344=T 5.3825918194=T 11.0173711628=T 0.316288369=T pbc="F F F"
C        1.01327982      -0.05502624       0.02401721
C        2.52287264      -0.04394049      -0.05381530
C        3.23881364      -0.63551997      -1.24850765
C        3.23417364       0.85982472      -1.03315400
C        4.51195269       1.57124895      -0.61442241
C        5.38117535       1.89133757      -1.74738202
N        6.06378814       2.14555542      -2.65843115
H        0.63736760       0.74646027       0.67768833
H        0.64474538      -1.01338753       0.41963799
H        0.56631143       0.08682696      -0.97109421
H        3.03141637      -0.17973394       0.90605146
H        2.63168854      -1.03204635      -2.06348047
H        4.17499607      -1.17062137      -1.08112064
H        2.59718752       1.44307164      -1.70284929
H        5.08431287       0.94363407       0.08774192
H        4.28167830       2.51010631      -0.08431975
