17
Properties=species:S:1:pos:R:3 -1666.391563040031=T 10.577819=T 11.96405=T -9.5775=T -7.305=T -11.392=T 0.9167=T -0.0235=T 2.884=T 10.87723=T -2.62166=T 9.010992515=T 11.8797061914=T 0.121938551=T pbc="F F F"
C        1.05636667       0.51127841      -1.05284588
C        2.56675148       0.58482969      -1.16737567
O        3.07824681       1.28670971      -0.02738662
C        4.48632076       1.36765538      -0.02725236
C        5.16901829       2.46341601      -0.88330480
O        5.86787702       2.97523733       0.28908861
C        5.05707492       2.13999178       1.16889754
H        0.63729393      -0.02322646      -1.91660822
H        0.61976441       1.51889013      -1.02329799
H        0.76217038      -0.02103739      -0.13800246
H        2.86153711       1.10931387      -2.09746578
H        3.01039570      -0.43037000      -1.20504011
H        4.93545122       0.36672731      -0.16866295
H        4.44946809       3.19799617      -1.28719724
H        5.87228042       2.14607136      -1.66876608
H        5.67318062       1.58420104       1.89146209
H        4.28203217       2.72266565       1.69555793
