18
Properties=species:S:1:pos:R:3 -1803.507103991892=T 14.158131=T 14.27233=T -8.4563=T -6.5111=T -8.346=T 0.6664=T -0.8716=T 0.344=T 7.85373=T 0.22282=T 5.081752189=T 0.809183653=T pbc="F F F"
C        0.78555450      -0.38407408       0.07966408
C        2.29410427      -0.16010100      -0.08106246
N        2.99245604      -1.20214388      -0.86479595
C        2.66972679       1.17694722      -0.66487850
C        1.83574389       2.18908813      -0.98023891
C        2.27871738       3.45165401      -1.54372210
C        1.46009927       4.47294983      -1.86133187
H        0.32693155       0.36715860       0.74058800
H        0.59696584      -1.37358379       0.52040297
H        0.27485480      -0.34416300      -0.89495938
H        2.75019522      -0.19970263       0.92827825
H        2.59688908      -1.23047938      -1.80991049
H        2.81197560      -2.12011184      -0.44939853
H        3.74371967       1.29493011      -0.84846484
H        0.75831668       2.08435490      -0.81152417
H        3.35597660       3.55666266      -1.71492153
H        0.38085874       4.40513261      -1.70441323
H        1.84345409       5.40109152      -2.28507135
