17
Properties=species:S:1:pos:R:3 -1741.8970702208592=T 11.144155=T 12.40972=T -9.6095=T -7.3957=T -10.925=T 1.2412=T -0.7857=T -0.01=T 10.06342=T 0.64933=T 3.6716098166=T 10.445324556=T 0.137945433=T pbc="F F F"
O        2.72996850       1.73433140      -1.63968032
C        2.27031563       1.56183099      -0.52548111
C        3.00612392       0.93377093       0.63294875
C        4.46270014       0.59257367       0.37591525
C        5.51307370       1.73580425       0.28473794
C        6.51252243       0.81777837       1.03809352
C        5.30267955      -0.02206158       1.53043227
H        1.21623682       1.87020158      -0.29223010
H        2.42557538       0.03378828       0.91702377
H        2.89744632       1.61530844       1.49867809
H        4.53747715      -0.03919529      -0.52318101
H        5.21554818       2.59647677       0.90499290
H        5.78221605       2.09787937      -0.71568995
H        7.14085384       0.24700725       0.33924616
H        7.15913470       1.27663609       1.79802024
H        5.40582992      -1.11579683       1.56612945
H        4.94652777       0.33084630       2.51144416
