15
Properties=species:S:1:pos:R:3 -1552.568907400848=T 10.409971=T 11.35629=T -8.2584=T -6.136=T -8.767=T 1.0052=T -0.2074=T 1.283=T 8.2899=T -0.67991=T 5.7473214356=T 0.257083874=T pbc="F F F"
O        2.41227209      -0.38279075       1.41594753
C        2.49077358      -0.00149490       0.03106108
C        3.04619802       1.37858840      -0.07619727
C        4.23777279       1.78902980      -0.54108083
C        4.33822832       3.28730784      -0.38746377
C        2.88787147       3.64561013       0.01130193
O        2.22020462       2.39229873       0.35852258
H        1.79245482      -1.12894762       1.47854137
H        1.48888482      -0.01761451      -0.43458710
H        3.14977354      -0.68398176      -0.53411548
H        5.03096220       1.13629050      -0.89455775
H        5.06588932       3.56091362       0.39656832
H        4.64536305       3.80508727      -1.30877423
H        2.33166233       4.08907799      -0.83036848
H        2.81384904       4.31058527       0.88128210
