16
Properties=species:S:1:pos:R:3 -1596.1713218470115=T 9.901155=T 11.19643=T -9.2183=T -7.1776=T -10.621=T 1.3267=T -0.4585=T 0.275=T 9.63063=T 0.45854=T 3.743695277=T 11.6565065942=T 0.30829908=T pbc="F F F"
C        1.42602286      -0.61943143      -0.45794646
C        2.89802950      -0.34359140      -0.17473502
C        3.23569717       1.13623478      -0.02429063
O        2.37984783       2.00633595      -0.10383625
C        4.70228427       1.46816640       0.23171657
C        4.98525097       2.95835485       0.38089715
H        1.24331166      -1.69813132      -0.55399022
H        1.10575641      -0.12905503      -1.38690395
H        0.79075267      -0.22956912       0.34834437
H        3.54322053      -0.75588071      -0.97057085
H        3.22967592      -0.85471537       0.74672757
H        5.29157711       1.03041026      -0.59356281
H        5.02002610       0.90850948       1.12936882
H        4.68681832       3.50721908      -0.52215900
H        6.05445402       3.13600140       0.55821382
H        4.41861469       3.38444217       1.21948687
