16
Properties=species:S:1:pos:R:3 -1607.4858293158327=T 10.922582=T 12.19811=T -9.285=T -7.1468=T -10.48=T 1.0201=T -1.0074=T -0.025=T 10.09826=T 0.64181=T 3.6609470206=T 11.6245182062=T 0.296688166=T pbc="F F F"
O        1.16304622      -0.19116181       0.16556287
C        2.34934584       0.05621216       0.26753504
C        2.96701916       1.41953538       0.01926524
N        4.32933083       1.29697217      -0.49099385
C        5.09076368       2.52320852      -0.43602562
C        5.84636746       2.81094421       0.83923257
C        6.59230276       2.40551715      -0.41325008
H        3.09117009      -0.72663666       0.57366445
H        3.02495370       1.90723973       1.01065103
H        2.27281697       2.02580098      -0.59502042
H        4.31203363       0.94664391      -1.45230825
H        4.67911988       3.39910649      -0.95889673
H        5.76948675       2.06317085       1.62905165
H        5.91520112       3.84484659       1.17739821
H        7.17416094       3.16016931      -0.94221399
H        7.00181097       1.39569103      -0.43873211
