18
Properties=species:S:1:pos:R:3 -1688.658013892714=T 10.633716=T 11.75037=T -9.2441=T -6.9438=T -10.646=T 0.8133=T -0.1771=T 2.857=T 10.06023=T -2.55639=T 8.4782494702=T 13.556443261=T 0.087231787=T pbc="F F F"
C        1.12929078      -0.27026886       0.14494381
O        2.48049712       0.03832014       0.47068348
C        2.82622841       1.42950853       0.27836587
C        2.36109837       2.29519409       1.45339794
N        2.99107449       1.86156231       2.70645792
C        4.33773307       1.44438695       0.06061577
O        4.70567712       0.66540505      -1.07870563
H        1.01955563      -1.35807922       0.24340995
H        0.89017601       0.02496590      -0.89306703
H        0.41006141       0.21948065       0.82559504
H        2.33607542       1.78854411      -0.64831706
H        1.25149246       2.29158218       1.47374921
H        2.66253570       3.33562056       1.24585580
H        2.75347468       0.87964416       2.87306585
H        2.61328666       2.39384389       3.49209886
H        4.84300803       1.09227933       0.97576448
H        4.66912849       2.47435608      -0.13671582
H        4.28863615      -0.20540586      -0.93601844
