20
Properties=species:S:1:pos:R:3 -1928.1283338636808=T 13.377209=T 14.49364=T -8.3149=T -6.3059=T -9.484=T 1.0587=T 0.0079=T 1.377=T 8.96726=T -0.81234=T 6.6732488836=T 0.46725065=T pbc="F F F"
C        1.16316063      -0.27532541      -0.02407605
N        2.61747245      -0.22116170       0.09259601
C        3.22296397      -1.33825789      -0.62613191
C        3.12144276       1.07675353      -0.36411801
C        4.59097448       1.33154443       0.00878448
C        5.04493513       2.70310067      -0.39829259
C        5.52377303       3.63533781       0.43354069
H        0.71211980       0.54025786       0.55918190
H        0.79568658      -1.22971746       0.38029155
H        0.80615980      -0.18815155      -1.07589419
H        2.81591130      -2.28355729      -0.23996271
H        4.30963128      -1.35705452      -0.47024052
H        3.02836582      -1.30104527      -1.72312948
H        2.50567470       1.85566788       0.11311776
H        2.99148498       1.19798134      -1.46693426
H        5.23196109       0.58536961      -0.49202436
H        4.71578390       1.19171158       1.09389744
H        4.96440976       2.93958264      -1.46657436
H        5.62211138       3.44533740       1.50576977
H        5.83846715       4.61541633       0.07172885
