9
Properties=species:S:1:pos:R:3 -1034.6239788580995=T 10.260527=T 10.27064=T -9.9952=T -8.0461=T -10.199=T -0.9761=T -2.729=T -1.471=T 9.69332=T 1.94413=T 3.768802442=T 9.9581711634=T 0.188976898=T pbc="F F F"
O        0.93397446       0.00977886       0.00000000
N        2.30982893      -0.09591869       0.00000000
C        2.88165446       1.08328000       0.00000000
C        2.21725217       2.33803483       0.00000000
C        1.65732391       3.41577368       0.00000000
C        4.31749096       1.07075674       0.00000000
N        5.48477412       1.11306642       0.00000000
H        0.65522907      -0.92592842       0.00000000
H        1.16235192       4.36557658       0.00000000
