14
Properties=species:S:1:pos:R:3 -1404.3581741639039=T 9.590568=T 10.00798=T -9.3151=T -7.3476=T -10.563=T 0.8839=T -0.7033=T 0.363=T 10.08969=T 0.23888=T 5.0093691622=T 6.5030904972=T 0.207585235=T pbc="F F F"
O        0.93388843       0.08579693      -0.40595142
C        2.29142256       0.04161367       0.07478691
C        3.07737086       1.31472687      -0.24534927
C        3.53312285       1.21191342      -1.68929066
O        4.42634012       0.08634754      -1.86865665
N        3.96218356      -1.13899861      -1.38888185
C        2.96635572      -1.14146323      -0.56767815
H        0.43003685       0.66769138       0.19099954
H        2.29461540      -0.14293517       1.16606281
H        2.44815832       2.20471706      -0.09498895
H        3.95135876       1.39801169       0.42020163
H        4.11774468       2.07696292      -2.02666427
H        2.66015521       1.07177917      -2.35170511
H        2.64887669      -2.14531367      -0.27223456
