19
Properties=species:S:1:pos:R:3 -1885.6587066660106=T 11.622885=T 12.87021=T -9.4196=T -7.2644=T -10.837=T 1.0399=T -0.8362=T 0.031=T 9.97661=T 0.62338=T 3.6724405228=T 8.1001045688=T 0.131260028=T pbc="F F F"
C        1.16531150      -0.28707910       0.43994009
C        2.50205927      -0.11140640      -0.29436138
C        2.77519109      -1.29436408      -1.23351713
C        2.62071111       1.26871356      -1.01657882
C        4.04940084       1.62622583      -1.42451407
C        1.65230316       1.37943589      -2.17753862
O        1.95191727       1.70992092      -3.31168770
H        0.96362750       0.55500552       1.11882378
H        1.17998330      -1.20654645       1.04329086
H        0.31678053      -0.37166910      -0.25511962
H        3.29667527      -0.10138183       0.47301650
H        2.00864104      -1.36848202      -2.02121797
H        2.76368135      -2.23998780      -0.67226215
H        3.75375969      -1.21315463      -1.72638117
H        2.25671711       2.02018485      -0.28552049
H        4.43235976       0.94211094      -2.19361193
H        4.71873346       1.58253954      -0.55379637
H        4.09356142       2.63786351      -1.84823245
H        0.58520534       1.14520086      -1.92845136
