15
Properties=species:S:1:pos:R:3 -1510.848178350368=T 10.45758=T 11.2622=T -8.8308=T -6.7867=T -10.113=T 0.8518=T -0.2125=T 0.606=T 9.5996=T 0.12251=T 4.386500694=T 5.9307215268=T 0.134064594=T pbc="F F F"
C        1.04888254       0.00903416       0.48386003
N        2.40148223      -0.00668413      -0.01915831
C        3.36955955       1.07172258      -0.27250930
C        4.37785848      -0.02514312      -0.73573152
N        4.95352897       0.13524634      -2.05764958
C        3.20531893      -1.02935059      -0.48099796
O        3.01110795      -2.22391315      -0.63069981
H        0.68545846      -1.02663722       0.49412355
H        0.38741456       0.61183997      -0.15893269
H        1.00705544       0.41186726       1.50829015
H        3.65249787       1.64702731       0.62332604
H        3.06872470       1.75894257      -1.07996194
H        5.18817308      -0.17404239      -0.00694706
H        4.22432901       0.06253394      -2.77305373
H        5.60990824      -0.62664352      -2.24169787
