16
Properties=species:S:1:pos:R:3 -1530.7985043877347=T 10.876688=T 11.47913=T -9.6131=T -7.4596=T -10.901=T 0.9567=T -0.9289=T 0.106=T 10.49997=T 0.43891=T 5.215099132=T 6.555945729=T 0.437091152=T pbc="F F F"
C        0.50707570      -0.52937208       0.37643534
C        1.99472214      -0.42337753       0.06213974
O        2.22362417      -1.09157403      -1.18215811
C        2.43598731       1.03787562       0.00717742
O        3.87373284       1.21763496       0.02146663
N        4.43654092       0.66946990      -1.14079918
C        5.70286233       0.85615652      -1.19456830
H        0.28310542      -0.13985991       1.37952294
H        0.20100878      -1.58290332       0.33547677
H       -0.08706401       0.02465326      -0.36531578
H        2.57457534      -0.91590376       0.87049076
H        3.07917874      -0.74897770      -1.51856811
H        2.11112146       1.57496305       0.90950902
H        2.01266374       1.52979669      -0.88468924
H        6.21336888       0.45083458      -2.06799246
H        6.25674624       1.39241375      -0.41634744
