16
Properties=species:S:1:pos:R:3 -1573.607332812878=T 9.864845=T 10.89932=T -10.0393=T -7.7639=T -11.253=T 0.922=T -0.0771=T 2.818=T 10.88342=T -2.4849=T 8.8908996754=T 11.1819377806=T 0.208648786=T pbc="F F F"
C        0.83994808       0.20051545      -0.30067566
C        2.30748939       0.05135549       0.05258811
C        2.62516959       0.08742439       1.53633041
O        2.10192451      -1.02275941       2.28086456
C        3.17354808      -0.82628595      -0.82094218
C        3.33555152       0.67748506      -0.86646513
H        0.69287516       0.20342129      -1.39003615
H        0.42741061       1.14270737       0.09573962
H        0.24056089      -0.63331859       0.10046295
H        2.26835194       1.04434653       1.96638711
H        3.71444907       0.04450528       1.68591183
H        1.13106373      -0.96865893       2.25092048
H        2.70392127      -1.31532094      -1.67592308
H        3.95308133      -1.41521683      -0.33559410
H        4.23219198       1.11097977      -0.41917745
H        2.97142285       1.20806003      -1.74779133
