13
Properties=species:S:1:pos:R:3 -1511.8925111830688=T 13.051718=T 12.70215=T -8.0845=T -6.1771=T -7.855=T 0.0826=T -1.4126=T 0.063=T 7.378=T 0.49865=T 3.9063773076=T 7.251693168=T 0.288238535=T pbc="F F F"
C        0.96267499      -0.04924746      -0.00005626
C        2.18072700       0.01296781       0.00002747
C        3.58787493       0.04221330       0.00035667
C        4.41032811       1.13913638      -0.00484909
C        5.79885306       0.70683579      -0.00220433
C        5.85227015      -0.65091644       0.00459986
C        4.45755583      -1.19764466       0.00683611
H       -0.10676531      -0.09424098      -0.00018329
H        4.07389678       2.17480749      -0.01011574
H        6.65311126       1.38306440      -0.00528498
H        6.74805055      -1.26896746       0.00797813
H        4.25386285      -1.83458179      -0.87136019
H        4.25323982      -1.82584636       0.89115564
