19
Properties=species:S:1:pos:R:3 -1934.4202339894914=T 11.93193=T 13.20699=T -10.2228=T -8.0208=T -11.594=T 0.9686=T 0.098=T 3.022=T 11.27988=T -2.76345=T 9.699796738=T 10.8772793814=T 0.145205404=T pbc="F F F"
C        1.03571812       0.00307978       0.07601854
C        2.55225967      -0.00136537      -0.06372749
C        3.19515601       1.04957583      -1.03169734
C        2.87951145       0.05430786      -2.18716882
C        3.18606889      -1.00390252      -1.08692393
C        4.69106696      -0.77387283      -0.84817404
C        4.69807447       0.79412707      -0.80695239
H        0.70677805       0.85776767       0.68706562
H        0.68934635      -0.91304030       0.57900132
H        0.51355012       0.06782386      -0.88889725
H        3.00951915      -0.03166219       0.94187198
H        2.85610959       2.09461922      -1.05401298
H        3.53394239       0.07532256      -3.07254646
H        1.82920719       0.06671834      -2.50059003
H        2.83821765      -2.04338658      -1.16480722
H        5.03572068      -1.22238738       0.09562039
H        5.30965636      -1.17864721      -1.66285112
H        5.31941260       1.23550779      -1.60027306
H        5.04758431       1.18974438       0.15842427
