17
Properties=species:S:1:pos:R:3 -1728.225833464218=T 12.657225=T 13.70844=T -8.8119=T -6.6877=T -9.273=T 1.6268=T 0.0456=T 1.205=T 8.96991=T -0.69655=T 6.3147557632=T 0.525184619=T pbc="F F F"
C        0.62765541      -0.15582249       0.32347676
C        2.11671827      -0.01941123       0.38508442
C        2.80697989       1.08096674       0.05869608
C        4.29749409       1.16349294       0.08743111
O        4.68586550       2.24724580       0.96146168
C        6.02328550       2.48776367       1.05236398
C        7.03348458       1.84131847       0.44814500
H        0.33175978      -0.96707574      -0.36070669
H        0.14854689       0.77251995      -0.01603704
H        0.21637691      -0.41649252       1.31173957
H        2.67325081      -0.90269308       0.72289798
H        2.27848003       1.98146287      -0.27326693
H        4.70318137       1.37165212      -0.92074630
H        4.74211786       0.21969502       0.44940266
H        6.19889153       3.32967323       1.72629687
H        6.89761212       0.99738969      -0.22525623
H        8.05082946       2.17587454       0.64017707
