16
Properties=species:S:1:pos:R:3 -1670.9702400787212=T 12.360191=T 12.34058=T -8.2392=T -6.2066=T -8.109=T 0.5986=T -0.9146=T 0.446=T 7.67051=T 0.13935=T 4.683819122=T 7.3645948196=T 0.411668673=T pbc="F F F"
C       -0.42148826       1.47779066      -0.58178861
N       -1.32861856       0.66609105       0.23035345
C       -1.44003814      -0.74742631      -0.13184480
C       -0.25745043      -1.59419512       0.24317618
C        1.03042434      -1.20681146       0.35964162
C        1.62869814       0.09624190       0.08879503
C        1.04028766       1.23328507      -0.33944231
H       -0.63407432       2.53203269      -0.33863057
H       -0.61054167       1.38000103      -1.67783458
H       -2.25897912       1.08221984       0.18019995
H       -1.64675858      -0.90483417      -1.21755193
H       -2.32249925      -1.14312800       0.39729590
H       -0.48763671      -2.64764659       0.42716980
H        1.74591161      -1.98132932       0.65156978
H        2.71560429       0.12871628       0.20909452
H        1.68860899       2.08813246      -0.55319344
