11
Properties=species:S:1:pos:R:3 -1196.1352752634687=T 12.508092=T 12.04272=T -9.322=T -7.4226=T -9.014=T -0.5209=T -2.091=T -0.824=T 8.56758=T 1.50899=T 4.2374323262=T 4.2688007842=T 0.413144782=T pbc="F F F"
C        2.83746047      -1.28901444       0.43395189
C        2.35930205      -0.07521372       0.11475725
C        3.12118318       1.15930665       0.04856274
N        2.56731897       2.31386947      -0.27447542
N        3.44168317       3.35583212      -0.28225068
C        4.65966550       2.99249521       0.03477157
S        4.84880057       1.29771411       0.38014604
H        2.18091623      -2.15788115       0.45571996
H        3.88766720      -1.45557535       0.68134694
H        1.30262188       0.06045428      -0.12834376
H        5.49828079       3.68456284       0.08275347
