15
Properties=species:S:1:pos:R:3 -1449.6809719093965=T 9.985546=T 10.50705=T -9.6852=T -7.4071=T -9.7=T 1.0017=T -0.2397=T 1.231=T 9.16297=T -0.67994=T 6.7252362134=T 0.446331275=T pbc="F F F"
N        1.00542540      -0.14411409      -0.59880238
C        2.43384028       0.03245505      -0.23557816
C        3.23878419      -0.84608932      -1.21884682
O        2.87128223      -0.58228187      -2.56517566
C        2.80225913       1.48532441      -0.36317910
C        3.23464729       2.24162227       0.65136037
H        0.43519144       0.56586083      -0.13472044
H        0.67225902      -1.05514061      -0.27108021
H        2.66513734      -0.30115758       0.79545996
H        3.06545147      -1.91198321      -0.95927724
H        4.31536713      -0.64537444      -1.11467732
H        1.90030368      -0.43533155      -2.51720732
H        2.70737638       1.91004125      -1.36787156
H        3.33950635       1.83744673       1.66214750
H        3.50804868       3.28790213       0.50624837
