20
Properties=species:S:1:pos:R:3 -1944.5246494665798=T 12.96776=T 13.92348=T -9.1378=T -6.9529=T -9.133=T 0.8475=T -0.0742=T 1.431=T 8.50777=T -0.79015=T 6.369904736=T 0.40605068=T pbc="F F F"
C        2.84440160      -2.13306482       0.32030742
C        2.89710604      -0.76914455      -0.37902497
N        1.57495994      -0.18581534      -0.67946682
C        3.69585527       0.26691913       0.44076954
C        5.15005426      -0.07050785       0.67099203
C        6.02602079      -0.15304670      -0.55245369
C        5.64357391      -0.26504200       1.90437789
H        3.85155716      -2.54092893       0.49694536
H        2.28164533      -2.86070934      -0.28339525
H        2.34548473      -2.04496951       1.29960765
H        3.39932496      -0.89514677      -1.35440884
H        1.05535531      -0.06377421       0.19663482
H        1.02840315      -0.85236302      -1.23214222
H        3.19424297       0.40516723       1.41445964
H        3.62194713       1.22690256      -0.09845543
H        5.71483066      -0.97458209      -1.21754163
H        7.07801497      -0.31641902      -0.28491836
H        5.95652143       0.77205777      -1.14709443
H        5.00683924      -0.19933504       2.78897647
H        6.69970115      -0.49032752       2.06740082
