13
Properties=species:S:1:pos:R:3 -1414.6180171247324=T 11.210223=T 12.32926=T -10.1215=T -7.7585=T -9.884=T 1.0543=T -0.1582=T 1.849=T 9.66944=T -1.56841=T 4.3780944432=T 10.5110495346=T 0.471495525=T pbc="F F F"
O        0.97552239      -0.02000015       0.01928935
C        2.41428546      -0.01063525       0.01909112
C        2.83510967      -0.82329376      -1.22813765
C        4.26076064      -1.10596791      -1.27933092
C        5.45109067      -1.33872502      -1.30807580
C        2.94881615       1.35088272       0.01696279
C        3.34713441       2.49703576       0.04380354
H        0.67949756       0.68866603       0.61714880
H        2.79908167      -0.53479111       0.91491202
H        2.51502409      -0.27257802      -2.12621920
H        2.26170351      -1.76347929      -1.20099366
H        6.50198516      -1.54145386      -1.34013278
H        3.70879862       3.50520985       0.05462239
