18
Properties=species:S:1:pos:R:3 -1728.0297117331058=T 11.340587=T 12.53147=T -8.564=T -6.51=T -9.947=T 0.912=T -0.0122=T 2.902=T 9.14828=T -2.60976=T 7.68527221=T 11.2117316164=T 0.226098538=T pbc="F F F"
C        0.74754261      -0.56043555       0.03138549
N        2.11363020      -0.22018273      -0.35353512
C        2.76175048      -1.35212627      -1.01118871
C        2.14110680       0.98444479      -1.18186912
C        3.53875308       1.54763251      -1.33014681
C        4.32578554       1.40611423      -2.56777488
O        3.66870373       2.64826200      -2.25296888
H        0.29098953       0.28207844       0.56995186
H        0.76062177      -1.43009285       0.70403074
H        0.09906002      -0.80928345      -0.83900691
H        2.75727841      -2.21920658      -0.33575646
H        3.80685536      -1.10949413      -1.24396796
H        2.25383908      -1.64761830      -1.95769233
H        1.52270689       1.74929848      -0.68445342
H        1.70408749       0.82195904      -2.19489019
H        4.08236328       1.68095805      -0.38599567
H        3.89440165       0.85469368      -3.41103748
H        5.41996408       1.43259862      -2.52331415
