21
Properties=species:S:1:pos:R:3 -2067.672100602176=T 12.69015=T 14.06926=T -10.2072=T -8.0221=T -11.553=T 0.9235=T 0.0279=T 2.889=T 11.30011=T -2.54962=T 9.658695379=T 9.7179358898=T 0.145260542=T pbc="F F F"
C        1.85516750      -0.59583289      -1.36056549
C        2.35875522      -0.03983799      -0.02528558
C        3.19976653       1.23801076      -0.12828598
C        4.50060665       1.01517337      -0.90528951
C        2.45067025       2.52808921      -0.60807153
C        3.11871396       3.32144517       0.54592549
C        3.47018609       1.97260955       1.22696052
H        1.20290894      -1.46632442      -1.20060067
H        2.68064363      -0.91985102      -2.01047287
H        1.27177989       0.15788018      -1.91154974
H        2.95054937      -0.81209230       0.49859607
H        1.49183454       0.17317751       0.62387407
H        5.10881240       1.93172405      -0.93481185
H        4.30635019       0.71693986      -1.94636105
H        5.10787812       0.22697338      -0.43221820
H        1.36272599       2.43868586      -0.46496841
H        2.64242811       2.86642535      -1.63697655
H        4.01357823       3.86595177       0.21337477
H        2.48280453       4.01718146       1.10975273
H        4.47590411       1.86406780       1.65941397
H        2.72745573       1.69308331       1.98977979
