19
Properties=species:S:1:pos:R:3 -1827.24967433256=T 11.123608=T 12.58038=T -9.8541=T -7.5458=T -11.836=T 0.8205=T -0.1827=T 2.638=T 11.46756=T -2.36148=T 9.5172397516=T 0.095834292=T pbc="F F F"
C        1.04687437      -0.26528076      -0.34119036
C        2.54777715      -0.16502069      -0.06577024
C        3.08224048       1.26966402      -0.07149803
O        2.40641697       2.08494456       0.92660558
C        4.60416777       1.34463191       0.09114903
C        5.16744113       2.76392468      -0.02275882
O        4.76568656       3.62482380       1.04257286
H        0.70395346      -1.30797367      -0.29164157
H        0.80383696       0.12041777      -1.34292459
H        0.46981963       0.32038075       0.38739838
H        3.10920706      -0.74360666      -0.81816103
H        2.78924465      -0.62550609       0.91042592
H        2.80140662       1.75305559      -1.02440441
H        2.53752763       1.64538271       1.78827927
H        5.06967651       0.71748791      -0.68863763
H        4.89458658       0.91244872       1.06577590
H        4.87744771       3.19083503      -1.00544057
H        6.26742847       2.73220787       0.00424488
H        3.79802027       3.49563255       1.12751543
