19
Properties=species:S:1:pos:R:3 -1871.8370956452234=T 11.655418=T 13.26717=T -9.2615=T -7.1196=T -11.32=T 0.9187=T 0.0426=T 2.841=T 10.67833=T -2.58234=T 9.155002254=T 9.86990553=T 0.125306771=T pbc="F F F"
C        2.37278047      -0.54640238      -1.56642353
C        2.45333427      -0.03024012      -0.12775156
C        3.38696658       1.15341271       0.02910160
O        2.91887121       2.35423615      -0.67409793
C        3.17754958       3.16540736       0.50693310
C        3.42439505       1.91610933       1.37587652
C        4.68676378       1.84884392       2.21925946
H        1.66630236      -1.38437150      -1.64747704
H        3.35419435      -0.89891602      -1.91836842
H        2.03628662       0.24885725      -2.24612373
H        2.80969177      -0.83072461       0.54458563
H        1.45197338       0.26581859       0.22659140
H        4.40403479       0.88793289      -0.32615616
H        4.07550551       3.79703771       0.37400981
H        2.31703525       3.80372473       0.76184933
H        2.53850399       1.66983167       1.98242936
H        5.57550811       2.09753681       1.61953936
H        4.83336846       0.84247335       2.63947322
H        4.64143448       2.55407216       3.06271958
