18
Properties=species:S:1:pos:R:3 -1750.3927743057702=T 11.178233=T 12.20749=T -8.6594=T -6.4843=T -10.084=T 0.8996=T -0.0413=T 3.076=T 9.34692=T -2.77417=T 8.2442506924=T 12.6739357102=T 0.144489662=T pbc="F F F"
C        1.72544408      -0.20519059      -1.39109655
O        2.12517699       0.28854241      -0.12129938
C        3.08180803       1.34858432      -0.22212881
C        2.48145120       2.68348862      -0.74780747
C        2.94239802       3.72907031       0.27589070
N        2.92646968       2.95700613       1.52321887
C        3.59768259       1.69280201       1.18975139
H        1.05155808      -1.05205939      -1.20765440
H        2.59606976      -0.55689337      -1.97895367
H        1.18629054       0.55439571      -1.98728168
H        3.91349296       1.00399125      -0.86710762
H        1.38529425       2.59575630      -0.71721227
H        2.78887888       2.92652919      -1.77354888
H        3.95397475       4.10543273       0.00303020
H        2.26485120       4.59329555       0.33991136
H        3.39525509       3.44711860       2.28665424
H        4.70359145       1.78535242       1.15255277
H        3.33782243       0.89603783       1.90053120
