17
Properties=species:S:1:pos:R:3 -1742.958049683084=T 10.784665=T 11.8499=T -9.8621=T -7.6512=T -11.776=T 0.9452=T -0.0031=T 3.001=T 11.36753=T -2.69871=T 9.6055549794=T 10.4011731414=T 0.106866192=T pbc="F F F"
O        0.98538134       0.09695637       0.07240525
C        2.41590915       0.00492261       0.03068427
C        3.02353172      -1.13213073       0.92117423
C        3.82646118      -0.26462748       1.90976334
C        4.49818364       0.75667881       0.94366546
C        3.02821362       1.22425376       0.73448926
C        2.81546348       0.87287201       2.23717315
H        0.62400443      -0.68456793      -0.37924145
H        2.75758485      -0.06249166      -1.01840437
H        3.65940365      -1.82658871       0.35192455
H        2.22462646      -1.70561686       1.41489674
H        4.39229018      -0.78245291       2.69516544
H        5.05328980       0.36641654       0.07556235
H        5.09703120       1.51024144       1.47285278
H        2.77407387       2.20567033       0.31573218
H        3.24683704       1.63480688       2.90044233
H        1.80194440       0.59834753       2.56075449
