18
Properties=species:S:1:pos:R:3 -1745.9946858762662=T 11.244108=T 12.55728=T -9.3293=T -7.1101=T -10.437=T 0.9102=T -0.1333=T 2.955=T 9.89778=T -2.63737=T 8.4828865466=T 11.2591562614=T 0.154700015=T pbc="F F F"
N        0.65951102      -0.46771512      -0.05538768
C        2.07480308      -0.70514678      -0.25451567
C        2.60387781      -0.48277527      -1.64940759
C        2.95635282       0.49772412      -0.55309935
C        4.37681921       0.59219645      -0.03187150
C        4.47770318       1.26304093       1.33836378
O        3.82600609       0.52664333       2.38120139
H        0.44682593      -0.31790465       0.93440798
H        0.12070828      -1.28692178      -0.34890676
H        2.56050538      -1.51574873       0.30662814
H        1.88029100      -0.15829350      -2.39732272
H        3.38893946      -1.14872757      -2.01091128
H        2.40850029       1.44414574      -0.60036062
H        4.98962791       1.17095620      -0.74546008
H        4.82342755      -0.41481477       0.02506505
H        4.07251368       2.29284944       1.27900011
H        5.53052025       1.34106228       1.64766792
H        2.91886706       0.35412968       2.07312886
