16
Properties=species:S:1:pos:R:3 -1620.7368795426387=T 10.78217=T 12.15387=T -10.443=T -8.2971=T -11.877=T 0.88=T -0.2353=T 1.333=T 11.6815=T -0.93242=T 5.3861626162=T 12.5771150428=T 0.197448263=T pbc="F F F"
C        1.33986925      -0.70137211       0.65097496
C        2.51048354      -0.06254849      -0.06829448
O        3.65450314      -0.11323261       0.80408802
C        4.81427865       0.49595143       0.25445337
C        5.88123378       0.56565405       1.34442293
C        5.30918472      -0.25447799      -0.92549990
N        5.68699216      -0.85179526      -1.85358151
H        0.44929159      -0.67642797       0.00825066
H        1.11131785      -0.16562790       1.58229804
H        1.56021969      -1.74906964       0.89576007
H        2.29303640       0.99342823      -0.32246584
H        2.73535686      -0.59826206      -1.00846563
H        4.57380381       1.51937969      -0.10157958
H        6.12707079      -0.44383998       1.69628766
H        5.49375565       1.15423544       2.18496418
H        6.79200213       1.04079516       0.95950705
