16
Properties=species:S:1:pos:R:3 -1592.3382079840712=T 10.615353=T 11.20378=T -8.9368=T -6.9427=T -10.392=T 1.135=T -0.3194=T 0.458=T 9.89105=T 0.16665=T 5.0316370478=T 6.4934815822=T 0.212195446=T pbc="F F F"
C        1.73469022      -0.10216901      -0.02158801
C        0.86153715      -1.22728560       0.54823128
C       -0.39976158      -1.48064167      -0.28619672
C       -1.46067547      -0.40925116      -0.15548252
N       -1.42026984       0.84272006       0.14620494
O       -0.16402043       1.48201070       0.29263976
C        0.89166852       1.03295525      -0.59144150
H        2.37828467      -0.48452225      -0.83292363
H        2.40613142       0.28276772       0.76081574
H        1.44542246      -2.15732556       0.62275969
H        0.55302594      -0.96746190       1.57223812
H       -0.87383703      -2.42077975       0.03804529
H       -0.14615339      -1.63827626      -1.35040033
H       -2.49988943      -0.74240563      -0.26507627
H        1.50232855       1.93268566      -0.76197092
H        0.43236823       0.75254940      -1.55426493
