14
Properties=species:S:1:pos:R:3 -1336.7962877576163=T 11.355578=T 12.71464=T -9.9171=T -7.9748=T -10.53=T 0.785=T -0.9168=T -0.017=T 10.10482=T 0.69695=T 5.2893419488=T 11.65840358=T 0.392146349=T pbc="F F F"
C        0.99516224       0.05970880       0.13678405
C        2.48162969       0.15541701       0.24282999
C        3.23001377       1.07919010      -0.36861663
S        4.99675938       1.05410345      -0.24453066
N        5.30166633       2.57181542       0.45710735
O        5.38543555       0.00029020       0.69995429
O        5.53853000       1.13160469      -1.60628564
H        0.70438775      -0.91977194      -0.27421685
H        0.57113431       0.84611386      -0.50044693
H        0.53368698       0.12692549       1.13433153
H        2.99718576      -0.58616958       0.86151816
H        2.84688939       1.86524156      -1.02154856
H        6.04260126       3.02343839      -0.08502295
H        5.59083760       2.43975255       1.42935285
