10
Properties=species:S:1:pos:R:3 -1192.5696245966872=T 8.981124=T 8.80102=T -9.83=T -7.9114=T -9.788=T -0.5808=T -2.3203=T -1.287=T 9.31065=T 1.76177=T 4.2064606234=T 8.9105142606=T 0.267453047=T pbc="F F F"
O        0.98281693       0.11960016       0.18619205
C        2.17196657      -0.04331955       0.07331265
O        3.00298432       1.15361631       0.01460895
C        4.33641982       1.04199347      -0.11107679
N        5.02871918      -0.04781489      -0.19239317
C        4.29581554      -1.21801879      -0.14232246
C        2.93949414      -1.26128357      -0.01668370
H        4.82166167       2.02169536      -0.14101396
H        4.88028329      -2.13869024      -0.21087347
H        2.38797853      -2.19925827       0.02023989
