14
Properties=species:S:1:pos:R:3 -1482.1350113777044=T 10.265334=T 11.03527=T -9.4545=T -7.4327=T -9.322=T 1.0873=T -0.6138=T -0.209=T 8.73374=T 0.75194=T 4.7640628612=T 6.7475908892=T 0.349897874=T pbc="F F F"
C        0.93405624      -0.15293539      -0.12528046
C        2.44175411       0.01121957       0.12032379
C        2.90117204       1.43906964       0.06603933
C        3.34612232       2.24515439       1.07750198
O        3.65054972       3.48238050       0.61982957
N        3.40000070       3.51910175      -0.76680222
C        2.96122641       2.31183474      -1.06378356
H        0.64621025      -1.21300274      -0.08867534
H        0.64443596       0.24077110      -1.11018000
H        0.35134369       0.38808172       0.63347389
H        3.00058136      -0.57671279      -0.62604988
H        2.70551655      -0.41303811       1.10103943
H        3.50119342       2.08475879       2.14074614
H        2.70124723       2.09678683      -2.09891268
