14
Properties=species:S:1:pos:R:3 -1492.927773216235=T 9.84971=T 10.62729=T -9.0219=T -6.9671=T -10.48=T 1.0106=T -0.7705=T 0.23=T 9.59148=T 0.50308=T 3.7574701216=T 12.0458474314=T 0.210998079=T pbc="F F F"
O        1.83392549       0.17471257       1.37413667
C        2.57125121      -0.02303916       0.42450460
C        2.76126104      -1.34626417      -0.32746154
C        4.19646767      -1.29553828      -0.89308955
C        4.53157821       0.19017103      -0.96903154
N        3.48820739       0.95845412      -1.66563563
C        3.53774075       0.96744564      -0.16188405
H        2.01309219      -1.37436581      -1.13456268
H        2.56688099      -2.19377149       0.34028873
H        4.89819336      -1.78868645      -0.20285453
H        4.28989014      -1.78122198      -1.87527902
H        5.57153996       0.51772985      -1.03026927
H        3.88355343       1.85163199      -1.98040822
H        3.76864818       1.88915216       0.37156601
