14
Properties=species:S:1:pos:R:3 -1435.7955369578062=T 10.79199=T 11.3339=T -9.4064=T -7.1902=T -9.499=T 1.0111=T -0.855=T -0.241=T 10.75636=T 0.81616=T 4.3593229628=T 6.3296464818=T 0.335800526=T pbc="F F F"
N        1.81550595      -0.57534939      -1.56798545
C        2.95151719      -0.45585139      -0.63880955
C        2.84227604       0.81636638       0.14625786
C        3.80767931       1.73818260       0.16350680
O        3.64430572       2.89579580       0.92676369
C        4.64764551       3.82554437       0.87814682
O        5.66767724       3.74910634       0.23353535
H        1.84147005      -1.48348236      -2.03698164
H        1.89340516       0.13668252      -2.29872088
H        3.95079550      -0.50877843      -1.11592428
H        2.88946808      -1.30904554       0.05889705
H        1.91725765       0.98518640       0.70388076
H        4.75447359       1.67484124      -0.37386634
H        4.35966302       4.66545147       1.53704980
