15
Properties=species:S:1:pos:R:3 -1556.9844821667755=T 10.201022=T 11.42655=T -9.2976=T -7.3066=T -10.62=T 1.0938=T -0.6247=T 0.188=T 9.58823=T 0.53105=T 3.7904751948=T 8.6917781594=T 0.169113456=T pbc="F F F"
C        0.94962076      -0.10693133      -0.05850524
C        2.01357204       0.64510156      -0.82925101
O        2.04280544       0.66160915      -2.05666930
C        3.02666023       1.37978925      -0.01498450
C        4.41391741       1.61175287      -0.61825351
C        3.45955533       2.75055131      -0.51107210
O        3.62281139       3.72490455       0.49163221
H        0.41861268       0.57664691       0.62109771
H        1.41895491      -0.87845162       0.57112443
H        0.24056090      -0.57455467      -0.74997182
H        2.97689302       1.28533372       1.07051536
H        4.57334682       1.17940705      -1.60720876
H        5.24796378       1.58035439       0.08277719
H        2.96635174       3.08385882      -1.43081224
H        4.36125354       4.30057804       0.22419156
