17
Properties=species:S:1:pos:R:3 -1691.5529531538987=T 10.802554=T 11.52285=T -8.5356=T -6.441=T -10.071=T 0.8041=T -0.1648=T 3.166=T 9.74268=T -2.91736=T 8.1802615178=T 11.40175256=T 0.166814735=T pbc="F F F"
C       -1.20775426      -0.72736118      -0.53827537
N       -1.20827661       0.77568250      -0.51442028
C       -0.02552313       1.10377637       0.32549013
C        1.21710715       0.73076795      -0.51362282
N        1.21731521      -0.77236588      -0.49757422
C        0.02027733      -1.10477676       0.32014412
C       -0.01188553      -0.00331978       1.40018766
H       -1.08240869      -1.10001962      -1.56544736
H       -2.13913517      -1.14077793      -0.12109460
H       -2.04691373       1.09726281      -0.02526261
H       -0.04900537       2.14818615       0.66131452
H        2.14116230       1.14201269      -0.07839121
H        1.10939951       1.10874386      -1.54085853
H        2.04739071      -1.09646794       0.00437946
H        0.03805073      -2.15093349       0.65083060
H       -0.91804112       0.00212610       2.02503545
H        0.88343066      -0.01203583       2.04043504
