17
Properties=species:S:1:pos:R:3 -1747.223736757922=T 10.737232=T 11.93128=T -9.624=T -7.555=T -11.576=T 0.9336=T 0.0392=T 2.816=T 10.83784=T -2.48335=T 8.966729513=T 10.896819575=T 0.163185377=T pbc="F F F"
C        1.20602344       0.27549900       0.62254636
C        2.44445605      -0.11015984      -0.18664390
C        2.41614680      -1.56268026      -0.73058737
C        3.28096081      -1.55944275      -2.01131730
C        3.16417651      -0.13770901      -2.52323988
O        1.80349740       0.36340538      -2.54648294
C        2.66766508       0.72438428      -1.43853011
H        1.27556585       1.30639098       1.00058068
H        1.07637293      -0.38954216       1.48889448
H        0.30318179       0.20125066      -0.00159207
H        3.34519123       0.02696324       0.44159512
H        1.38003218      -1.82446793      -0.98849193
H        2.76524536      -2.29031370       0.01473931
H        4.34184774      -1.76371947      -1.78712842
H        2.95009710      -2.30572090      -2.74906563
H        3.80911499       0.23315253      -3.32598503
H        2.91069473       1.78975995      -1.36785139
