20
Properties=species:S:1:pos:R:3 -1939.6350508331464=T 13.001287=T 14.10695=T -9.2181=T -6.977=T -9.459=T 1.0194=T -0.0684=T 1.367=T 8.89337=T -0.7795=T 6.6331518112=T 0.438632827=T pbc="F F F"
C        2.94027044      -1.06910904      -0.18087507
C        2.69181634      -0.03831801       0.92082445
C        3.54318610       1.24189334       0.78312086
C        3.04966083       2.34848103       1.74293791
N        1.66999477       2.75313690       1.42866939
C        5.00141655       0.96515501       1.02840805
C        5.99284345       1.15055997       0.14923166
H        2.32084343      -1.96503065      -0.03012691
H        3.99294904      -1.38743599      -0.21104071
H        2.69093418      -0.65660179      -1.17132739
H        2.89681819      -0.48923133       1.90881311
H        1.63408380       0.26581626       0.92959957
H        3.43502698       1.62344975      -0.25101471
H        3.77853244       3.18205081       1.71603410
H        3.05701303       1.95208712       2.77295223
H        1.66177461       3.30159226       0.56440256
H        1.31526086       3.37280909       2.15995447
H        5.24439434       0.57454307       2.02602306
H        5.79710160       1.53140208      -0.85693839
H        7.03092903       0.92647012       0.40074176
