14
Properties=species:S:1:pos:R:3 -1420.9701958697826=T 11.734834=T 12.56982=T -9.3281=T -7.2927=T -10.033=T 1.2292=T -0.4873=T 0.359=T 9.64793=T 0.26074=T 4.3656834446=T 10.7500325496=T 0.562743676=T pbc="F F F"
C        1.50540736      -0.48269156      -0.78278373
O        2.84830392      -0.32474056      -0.30700020
N        3.19963357       1.03526974      -0.39804904
C        4.40289243       1.23289907      -0.00247736
C        4.94293253       2.63894133      -0.01174280
C        6.19101335       2.75173428      -0.76235351
C        7.22984899       2.82320387      -1.38494992
H        1.28950045      -1.55330613      -0.68387107
H        1.42274324      -0.17914419      -1.83714773
H        0.79983745       0.10058397      -0.17223109
H        5.04580990       0.41115484       0.33861408
H        5.12083939       2.96724395       1.02826980
H        4.17631871       3.30768577      -0.43239919
H        8.14350871       2.89668560      -1.93851825
