17
Properties=species:S:1:pos:R:3 -1736.057336108517=T 10.745876=T 12.02385=T -9.2348=T -7.2531=T -11.235=T 0.9416=T 0.0701=T 2.864=T 10.40534=T -2.59991=T 8.9357578102=T 11.3498520204=T 0.148596003=T pbc="F F F"
C        1.04895153       0.00217870       0.04506316
C        2.56766610      -0.00321181      -0.00429356
C        3.20909299      -0.94909885      -1.05427858
C        4.72456097      -0.76810655      -0.83774228
C        4.73240109       0.79429156      -0.78555049
C        3.21882213       1.00458987      -0.98877098
O        2.92310862       0.06509397      -2.09190402
H        0.67738994       0.87109024       0.60883152
H        0.66914512      -0.90221041       0.54381706
H        0.62643264       0.04119228      -0.96824056
H        3.00779332      -0.03938375       1.00695853
H        2.81203265      -1.94592583      -1.28720610
H        5.08030188      -1.24063196       0.08924557
H        5.29982582      -1.16744651      -1.68271941
H        5.31154406       1.24323871      -1.60252844
H        5.09297458       1.20045387       0.17055570
H        2.83189656       2.01870645      -1.15432711
