22
Properties=species:S:1:pos:R:3 -2087.125464260898=T 13.021613=T 14.44767=T -9.0244=T -6.9177=T -10.461=T 0.8378=T -0.1178=T 2.922=T 9.7768=T -2.59984=T 8.3363350946=T 10.6323202412=T 0.118638573=T pbc="F F F"
C        0.92856367       1.54038921       0.96466182
C        2.43544888       1.68941862       1.18600317
C        3.25345650       1.20268356      -0.01388236
C        4.77745881       1.46863486       0.03873127
C        5.41402009       0.84448629       1.28955111
C        5.42598752       0.85884446      -1.22053715
N        4.98249724       2.93526107       0.12077943
H        0.35868938       1.88886270       1.83825888
H        0.64922220       0.49055235       0.78261876
H        0.59386321       2.12587350       0.09392019
H        2.72472711       1.12543315       2.08791507
H        2.68866704       2.74252211       1.38335228
H        2.86148777       1.68399853      -0.93012446
H        3.09502940       0.11893774      -0.15508042
H        5.02496162       1.31007311       2.20442893
H        6.50635118       0.98623668       1.27674922
H        5.21938299      -0.23704283       1.33238827
H        4.99022894       1.29549750      -2.13293368
H        5.28016925      -0.23219016      -1.26788742
H        6.50936484       1.05548009      -1.23352517
H        4.65968868       3.36861561      -0.75036642
H        5.98659369       3.13173184       0.17336868
