15
Properties=species:S:1:pos:R:3 -1574.7805707319042=T 9.918257=T 11.2006=T -10.2204=T -8.1175=T -11.367=T 0.714=T -0.2335=T 0.15=T 10.41663=T 0.4831=T 4.378317618=T 13.304379723=T 0.129421316=T pbc="F F F"
C        2.19770667      -0.53774954      -1.46357634
C        2.47366614       0.09319488      -0.09630933
C        3.28914707       1.36327047      -0.21171300
C        2.58328407       2.65317235      -0.66569198
C        2.92062478       3.15539584       0.73595926
O        2.77107385       4.15419101       1.38492593
O        3.54838628       1.98172510       1.12337640
H        1.61003609      -1.45907420      -1.35585300
H        3.13294752      -0.79800204      -1.98132601
H        1.63135095       0.14262768      -2.11702365
H        3.02239832      -0.61424297       0.54512228
H        1.52845181       0.32272966       0.42243976
H        4.25787734       1.18413777      -0.70263138
H        1.50600111       2.56670805      -0.85829134
H        3.06084801       3.22609592      -1.46948761
