17
Properties=species:S:1:pos:R:3 -1802.7798439600383=T 11.952217=T 12.93494=T -8.4295=T -6.3044=T -8.402=T 0.9644=T 0.0905=T 1.503=T 7.89778=T -0.8169=T 5.6588078302=T 0.264328915=T pbc="F F F"
C        0.92126206       0.00319456       0.31424457
C        2.36993516       0.00555180      -0.05667355
C        3.13936114       1.07043804      -0.35739172
C        4.56332203       0.69589974      -0.58595916
C        5.27160830       0.09245263       0.61689782
C        4.60905192      -0.81777438      -0.38834687
C        3.17989175      -1.27983284      -0.11587339
H        0.34183204      -0.65594568      -0.35423431
H        0.48810075       1.01123100       0.26282052
H        0.76999486      -0.38133877       1.33635484
H        2.78408257       2.10258598      -0.38965914
H        5.15809778       1.20116722      -1.34912570
H        6.36284071       0.10714276       0.62164852
H        4.80017831       0.22956982       1.59269152
H        5.25526991      -1.43431914      -1.01343897
H        3.09553117      -1.85888246       0.82081167
H        2.80588955      -1.93818029      -0.92091666
