12
Properties=species:S:1:pos:R:3 -1335.241639009596=T 11.622152=T 11.48683=T -8.8433=T -6.966=T -9.053=T 0.1767=T -1.4432=T -0.244=T 8.50241=T 0.77432=T 4.1042837608=T 5.2388672482=T 0.327220036=T pbc="F F F"
C        0.59982138       0.34656743      -0.01815834
C        1.93480274       0.18018747      -0.16430127
N        2.50173242      -1.08632446      -0.40017137
C        3.83829872      -1.38703457      -0.56593519
O        4.24678966      -2.52145890      -0.76831763
C        2.82810776       1.29156964      -0.08449684
C        3.55631606       2.26142162      -0.01064605
H        0.19254208       1.33703550       0.16286811
H       -0.08774067      -0.49696825      -0.07800859
H        1.86579386      -1.88210386      -0.45796469
H        4.48899221      -0.49180043      -0.49504360
H        4.19624379       3.11798881       0.05486546
