13
Properties=species:S:1:pos:R:3 -1414.886026591128=T 11.427171=T 11.17856=T -9.5188=T -7.5981=T -9.81=T -1.1784=T -2.8689=T -1.345=T 9.00336=T 1.7219=T 3.3611116768=T 4.9469422112=T 0.51788831=T pbc="F F F"
C        0.99243361      -0.10762463       0.00653239
N        2.44613337      -0.04093104      -0.00502445
C        3.01276701       1.11073250      -0.00570522
C        2.44324598       2.48519347       0.00424103
C        3.50290734       3.32438851      -0.00077539
C        4.70921426       2.46207152      -0.01414943
N        4.44769578       1.18950564      -0.01686006
H        0.68181000      -1.15946678      -0.00233027
H        0.55267964       0.38911065      -0.87400538
H        0.56982571       0.36813158       0.90683552
H        1.38704918       2.73984829       0.01409674
H        3.49749798       4.41329472       0.00394666
H        5.73831012       2.82990557      -0.02120214
