17
Properties=species:S:1:pos:R:3 -1598.7491751593657=T 11.684545=T 12.18029=T -8.3761=T -6.3613=T -9.008=T 1.4454=T -0.2=T 0.721=T 8.44325=T -0.21765=T 4.8005395424=T 5.3292034478=T 0.320517408=T pbc="F F F"
C        1.40236827       2.87059042      -0.66799425
O        2.71046356       2.37688851      -0.91866736
C        2.99933121       1.21029278      -0.14966518
C        4.45014984       0.82097386      -0.40370061
N        5.42455916       1.80337177       0.05695928
N        5.58875442       1.84933153       1.40737175
C        6.02770728       2.93483017       1.94368090
H        1.26827195       3.76448639      -1.29025058
H        1.27008780       3.14539522       0.39529322
H        0.62961263       2.12555966      -0.93604427
H        2.32494495       0.37908639      -0.44032579
H        2.84971800       1.41324280       0.92892881
H        4.60596089       0.67545778      -1.48366067
H        4.66927550      -0.12716245       0.10707963
H        5.32539478       2.71800848      -0.40392633
H        6.21824311       2.92545714       3.01693131
H        6.23118665       3.85522957       1.37171014
