15
Properties=species:S:1:pos:R:3 -1507.8341762877956=T 11.531464=T 12.4361=T -8.7342=T -6.6407=T -9.587=T 0.8314=T -0.1549=T 2.251=T 9.29276=T -1.82523=T 4.3520077888=T 10.4220399852=T 0.428603284=T pbc="F F F"
N        0.90528202       0.04385392       0.11166023
C        2.35887830       0.00833422       0.00685692
C        3.14461991       1.03427852       0.84881353
N        4.03507866      -0.04073027       1.41044003
C        3.08149179      -1.08402957       0.86012262
C        3.67010594      -2.21204133       0.17155137
C        4.18091165      -3.13571896      -0.43131263
H        0.49443470      -0.69814541      -0.46231665
H        0.55256171       0.92499650      -0.27248078
H        2.75261857      -0.02614516      -1.02712624
H        2.52673344       1.47091090       1.64977528
H        3.66057449       1.83830308       0.30623560
H        4.89992751      -0.08580114       0.86235032
H        2.41882875      -1.42926354       1.67270874
H        4.63083258      -3.95721177      -0.95037835
