12
Properties=species:S:1:pos:R:3 -1277.8425633315755=T 9.711466=T 9.59235=T -7.3579=T -5.3752=T -7.743=T 0.8994=T 0.0199=T 1.064=T 7.22941=T -0.52922=T 4.6391097704=T 5.9405164208=T 0.36406046=T pbc="F F F"
N        0.91699613       0.01061745      -0.23793367
C        2.32248936       0.00567031      -0.08061853
C        3.16346396       1.10989341      -0.02589073
N        4.46631639       0.63626961       0.03478191
C        4.46664528      -0.73502340       0.02687580
C        3.14893569      -1.15862947      -0.04843813
H        0.49381638       0.87757478       0.09105548
H        0.47822093      -0.76891044       0.25108641
H        2.94710356       2.17260891      -0.03842562
H        5.29090478       1.22052286       0.08724121
H        5.39079889      -1.30097748       0.07272842
H        2.81311864      -2.19104653      -0.08823254
