19
Properties=species:S:1:pos:R:3 -1888.2350159964994=T 11.380886=T 12.53952=T -9.2727=T -7.168=T -11.301=T 0.9103=T -0.0114=T 2.915=T 10.66543=T -2.65434=T 9.200691095=T 10.432615991=T 0.135190818=T pbc="F F F"
C        0.96223658       0.06360093       0.12766340
C        2.48881322       0.00052476      -0.00693265
C        2.99094062      -1.36539049      -0.52160787
C        2.70093041      -1.54376270      -2.01913366
C        3.20226259      -0.33179445      -2.80315538
O        2.65150477       0.89240523      -2.30425355
C        3.02318567       1.10012607      -0.93746644
H        0.64770537       1.02204055       0.56719558
H        0.58830964      -0.74241746       0.77638703
H        0.46779185      -0.02668719      -0.84963618
H        2.93242576       0.17853475       0.98915496
H        2.53989413      -2.18358308       0.06238612
H        4.08192059      -1.42561732      -0.36059183
H        3.18857880      -2.45489422      -2.40180466
H        1.61928691      -1.66150741      -2.19226006
H        4.31144303      -0.28263898      -2.75484645
H        2.90873958      -0.38386065      -3.86142252
H        4.12998993       1.14801280      -0.86014170
H        2.61703055       2.08537886      -0.66348414
