9
Properties=species:S:1:pos:R:3 -1026.638652428286=T 9.416086=T 10.03744=T -10.6226=T -8.3164=T -10.059=T 0.0395=T -1.8072=T 0.068=T 9.86223=T 0.24623=T 3.6241479758=T 10.6750458168=T 1.372663437=T pbc="F F F"
O        0.97802374       0.00002772      -0.11970854
C        2.40319654       0.02483345      -0.00261359
C        2.87050976       1.40072257      -0.00454916
C        3.30427911       2.53998967      -0.00193931
C        3.78744713       3.81562592       0.00106481
N        4.20714347       4.91243623       0.00401034
H        0.70457225      -0.93396668      -0.11394664
H        2.89262585      -0.50633669      -0.84176203
H        2.74558213      -0.45361220       0.93533413
