16
Properties=species:S:1:pos:R:3 -1467.7200187980595=T 11.114806=T 12.434=T -9.6113=T -7.6361=T -10.408=T 0.6637=T -0.3075=T 0.061=T 9.88532=T 0.27925=T 5.2043495458=T 10.9911357252=T 0.192019193=T pbc="F F F"
C        0.92914493      -0.04690240      -0.04861790
N        2.38239907       0.07633387      -0.17093297
C        2.99542971      -0.77979782      -1.18748531
S        3.01537525       1.63727272      -0.02670643
C        2.51474139       2.53209310      -1.50973258
O        2.32745522       2.26391972       1.10396573
O        4.47265284       1.50332759      -0.07921518
H        0.57258983       0.62748690       0.73678370
H        0.69452442      -1.07984501       0.24558182
H        0.40020511       0.17105799      -0.99632344
H        2.80340793      -1.82779234      -0.91655346
H        4.07791985      -0.61574729      -1.19536158
H        2.58370830      -0.60363775      -2.19984113
H        2.93839037       2.03409436      -2.38927397
H        2.92778472       3.54268565      -1.41157382
H        1.42038106       2.57314070      -1.55168347
