18
Properties=species:S:1:pos:R:3 -1823.5480972471473=T 11.715617=T 13.11027=T -11.2904=T -8.9743=T -11.641=T 0.771=T -0.2216=T 1.516=T 11.20323=T -1.09396=T 5.3429782924=T 10.6881263398=T 0.247657724=T pbc="F F F"
C        0.93425086      -0.08188621       0.12573367
C        2.46199559      -0.03872194       0.00724616
C        2.92762595      -0.78146582      -1.24990771
C        2.98592230       1.42870209       0.02153901
C        2.57953660       2.23337136       1.27188692
C        4.44678855       1.45408421      -0.11529591
N        5.61044940       1.47710703      -0.20063592
H        0.57022992       0.33840982       1.07252860
H        0.58288015      -1.12195755       0.07183710
H        0.45866869       0.47063972      -0.70081823
H        2.89656182      -0.54048876       0.89032036
H        2.50792703      -0.31780414      -2.15713408
H        2.59134510      -1.82749023      -1.22505154
H        4.02210633      -0.77973844      -1.34301055
H        2.58140605       1.93742586      -0.87362169
H        2.91234157       1.72253500       2.18635040
H        1.49049368       2.35470548       1.31359722
H        3.03359042       3.23213252       1.25510618
