21
Properties=species:S:1:pos:R:3 -1951.0086943153146=T 12.880947=T 14.63767=T -8.6685=T -6.4714=T -10.073=T 0.9197=T -0.037=T 3.152=T 9.35668=T -2.89519=T 8.1786001054=T 12.044433991=T 0.104249567=T pbc="F F F"
C        1.01051921      -0.11629295      -0.03400198
N        2.46613260      -0.02500191       0.04086658
C        2.94976273       1.35419695      -0.01917749
C        4.47596747       1.41681688      -0.00327153
C        5.01512334       2.84879467      -0.01222030
C        6.54160742       2.91712612      -0.02445909
N        7.00016545       4.31485203       0.01585328
H        0.70681936      -1.17209347      -0.06105016
H        0.56488048       0.39845792      -0.91260204
H        0.56976563       0.33237545       0.87001641
H        2.87530641      -0.55084057      -0.73622570
H        2.55155184       1.88628248       0.86326004
H        2.56576810       1.90290710      -0.91059861
H        4.86858822       0.87003134      -0.88050237
H        4.84031107       0.87898148       0.88767460
H        4.64822601       3.40020817       0.86929505
H        4.62478992       3.38360269      -0.89760676
H        6.91979786       2.34356468      -0.89716057
H        6.93227538       2.41256352       0.87515329
H        6.72636332       4.79048385      -0.84868418
H        8.02172818       4.34690358       0.04414153
