11
Properties=species:S:1:pos:R:3 -1174.51157163159=T 10.000654=T 10.09364=T -8.8826=T -6.7856=T -8.565=T 0.8367=T -0.8466=T 0.556=T 8.18529=T -0.01599=T 4.0916371888=T 11.4567527496=T 0.535459894=T pbc="F F F"
C        0.91405771      -0.03006102       0.05434437
C        2.40230707       0.00773218       0.16559965
C        3.16864454       1.06209954      -0.18543303
C        4.58141882       1.10078249      -0.07895046
C        5.79463047       1.17772295      -0.00299094
H        0.58798855      -0.85569922      -0.59877134
H        0.50997419       0.90894730      -0.34725586
H        0.45042737      -0.21378253       1.03713172
H        2.89709573      -0.88526919       0.56047163
H        2.68796657       1.96359375      -0.58305836
H        6.86146900       1.23165375       0.06732262
