14
Properties=species:S:1:pos:R:3 -1381.2446213037224=T 8.771939=T 9.74377=T -9.5657=T -7.3228=T -11.008=T 0.8781=T -0.1961=T 2.843=T 10.67929=T -2.51509=T 8.5793848504=T 11.7175325034=T 0.218158505=T pbc="F F F"
O        2.84020172      -1.01024167      -0.28326940
C        2.08480471       0.13631868       0.15623628
C        3.05036006       1.28399789       0.28853273
O        4.07341646       1.05248566       1.23625061
C        3.38073638       2.13175134      -0.92165759
C        2.54875876       2.69305003       0.22006098
H        2.31538898      -1.80684379      -0.10017468
H        1.62103018      -0.05938112       1.13964637
H        1.29059157       0.38892888      -0.56943746
H        4.49457160       0.21433044       0.96428828
H        2.88677291       1.90600440      -1.86754501
H        4.41054365       2.47879086      -1.00022548
H        3.03514964       3.40096360       0.89100485
H        1.48303339       2.86179479       0.05958954
