14
Properties=species:S:1:pos:R:3 -1522.5490042013093=T 10.670119=T 11.19655=T -9.1279=T -7.2221=T -9.84=T 0.6898=T -0.8976=T -0.193=T 9.26113=T 0.73277=T 4.2178053424=T 5.420109983=T 0.336770146=T pbc="F F F"
C        0.98602074       0.03852275       0.06888904
C        2.47386708      -0.02752546      -0.01912217
C        3.27414842      -1.10628851      -0.11094736
C        4.70367764      -0.68998068      -0.17418208
O        5.70974692      -1.38804236      -0.26115748
N        4.67009087       0.69707489      -0.11281500
C        3.32725477       1.22265227      -0.01411940
H        0.54080642      -0.96377605       0.04506079
H        0.56386055       0.62245072      -0.76447954
H        0.66447614       0.53558557       0.99805099
H        2.97767646      -2.15259637      -0.13893315
H        5.51492958       1.25672304      -0.13714109
H        3.06888349       1.88093579      -0.86425198
H        3.16983092       1.80512439       0.91258844
