10
Properties=species:S:1:pos:R:3 -1011.2431473237618=T 6.954215=T 7.32747=T -9.9422=T -7.7638=T -11.156=T 0.9674=T -1.0586=T 0.027=T 10.30719=T 0.52474=T 4.0525196058=T 14.416224178=T 0.206016227=T pbc="F F F"
O        2.36600028       0.10473497      -1.15610179
C        2.24436220       0.36549525       0.02435313
N        2.83792382       1.46195047       0.73422806
C        4.18152636       1.85424486       0.18025045
C        3.01093662       2.68578836      -0.12502039
H        1.62570911      -0.25540979       0.70780343
H        4.56673675       1.22709592      -0.62639938
H        4.88736612       2.15354662       0.95589421
H        2.83233355       3.61339566       0.42001280
H        2.60724519       2.61912769      -1.13743051
