13
Properties=species:S:1:pos:R:3 -1384.240968563173=T 10.409711=T 10.57575=T -7.1843=T -5.2659=T -7.654=T 0.8379=T -0.1984=T 0.94=T 7.17503=T -0.37113=T 4.4529695886=T 5.8743698898=T 0.366490223=T pbc="F F F"
N        0.94060485       0.14262868       0.23380692
C        2.34113883       0.04202437       0.05642037
C        3.21151194       1.10952768      -0.09485462
O        2.96035772       2.45634784      -0.24068893
N        4.50570609       0.61628290      -0.14277234
C        4.47181711      -0.75557200      -0.03532299
C        3.14655980      -1.13749744       0.10377887
H        0.55963930       0.93311584      -0.28889842
H        0.46433501      -0.70397722      -0.07627586
H        2.74090849       2.83133781       0.63338155
H        5.32074915       1.18772665      -0.33139113
H        5.37901304      -1.34765888      -0.07203883
H        2.79131867      -2.15651622       0.22997541
