20
Properties=species:S:1:pos:R:3 -1939.9098301649476=T 13.267142=T 14.83147=T -9.3038=T -6.9668=T -9.509=T 0.9582=T -0.0123=T 1.365=T 8.97381=T -0.79946=T 6.6762369462=T 0.472883613=T pbc="F F F"
N        0.26638303       1.49748223       0.12348805
C        1.65465661       1.01468561       0.20094449
C        2.63395927       2.18821235       0.21706688
C        4.09712722       1.75496987       0.33425170
C        5.07855769       2.94056442       0.31925715
C        6.51225993       2.51747021       0.45213538
C        7.47074549       2.73602584      -0.45561671
H       -0.38053997       0.70608622       0.15474970
H        0.11199522       1.95172240      -0.78131261
H        1.93687327       0.32218053      -0.61984767
H        1.75682120       0.44590448       1.14036461
H        2.36463346       2.85831596       1.05023149
H        2.50258512       2.77698874      -0.70934788
H        4.35397925       1.07039852      -0.49198516
H        4.23792412       1.17947717       1.26616934
H        4.82072010       3.61867241       1.15334026
H        4.94830225       3.51992921      -0.61008646
H        6.76863704       1.97535673       1.37079484
H        7.26183578       3.27082503      -1.38622499
H        8.49536391       2.39466208      -0.30050241
