11
Properties=species:S:1:pos:R:3 -1187.3319693384913=T 8.543452=T 8.92583=T -9.4619=T -7.3984=T -9.3=T 1.1702=T -0.5547=T -0.121=T 8.66925=T 0.66731=T 4.7920093056=T 11.783815419=T 0.421413195=T pbc="F F F"
C        0.96986338      -0.03372929      -0.00719730
C        2.44928045       0.11090513       0.00036064
C        3.29747022       1.18633414       0.00243518
C        4.59183334       0.60066558       0.01011939
N        4.55378946      -0.71759831       0.01210808
O        3.17655617      -1.03695716       0.00626239
H        0.49490911       0.95372087       0.00053062
H        0.62650843      -0.59524025       0.87330719
H        0.63348538      -0.57769036      -0.90141352
H        3.03322705       2.23792667      -0.00079490
H        5.56250701       1.09202298       0.01407223
