14
Properties=species:S:1:pos:R:3 -1511.5754601094952=T 9.8411=T 10.66206=T -9.0824=T -7.0895=T -10.239=T 0.8137=T -0.0846=T 0.607=T 9.60434=T 0.07605=T 4.3549338584=T 11.0684038004=T 0.173437921=T pbc="F F F"
O        1.75268003       0.19801708       1.45697335
C        2.44156618       0.06019371       0.45529944
C        2.98128375      -1.25849773      -0.12885783
C        3.96129370      -0.84418241      -1.21012875
C        5.14018085       0.03104814      -0.82731870
C        3.86490734       0.66346281      -1.34014029
N        2.90211710       1.08179710      -0.35670173
H        2.13768293      -1.83653439      -0.53518513
H        3.42307201      -1.85221427       0.68346620
H        4.05097340      -1.45327829      -2.10910050
H        5.37194594       0.16125152       0.23185834
H        6.00336495       0.01579928      -1.49371441
H        3.82767210       1.16192015      -2.30940288
H        2.83209972       2.04209731      -0.02829711
