19
Properties=species:S:1:pos:R:3 -1918.8116187067671=T 13.307684=T 15.17425=T -9.2228=T -7.0673=T -9.088=T 0.8203=T -0.0527=T 2.432=T 8.61613=T -2.0457=T 4.112367648=T 10.0777184646=T 0.7964444=T pbc="F F F"
C        0.95837759      -0.00008514      -0.00074396
C        2.41476628      -0.00009146      -0.00092127
C        3.63160972      -0.00002610      -0.00059633
C        5.10265159       0.00006880       0.00132405
C        5.61254719      -0.71743818       1.27264191
C        5.61668870      -0.74140304      -1.25440992
C        5.61470906       1.45904719      -0.01174638
H        0.55932150       1.02565077       0.01099180
H        0.55943515      -0.52294063       0.88184812
H        0.55902475      -0.50283430      -0.89474370
H        5.25650695      -0.20592143       2.17773975
H        6.71322961      -0.72634691       1.28691941
H        5.25534835      -1.75623755       1.30313131
H        5.26130785      -0.24886774      -2.17023973
H        5.26213664      -1.78150901      -1.26498038
H        6.71741304      -0.74787596      -1.26636351
H        5.26314345       1.98715771      -0.90904583
H        6.71540842       1.47418060      -0.00678679
H        5.25483416       2.00598239       0.87085144
