12
Properties=species:S:1:pos:R:3 -1280.6642202150274=T 12.065204=T 12.08822=T -7.5849=T -5.7356=T -7.976=T 0.7909=T -0.4396=T 0.151=T 7.44183=T 0.38369=T 4.055148109=T 5.9103258298=T 0.348754067=T pbc="F F F"
N        0.95069985      -0.00923488      -0.22217028
C        2.35156225       0.02608174      -0.10118254
C        3.09887924       1.18571296      -0.12501897
O        2.57260014       2.45036738      -0.27277224
S        4.82608751       0.85940732      -0.11291406
C        4.52565593      -0.84587296       0.00297022
C        3.18552782      -1.13580882      -0.02536127
H        0.53502909       0.91309179      -0.09449928
H        0.50976087      -0.68558626       0.39987485
H        2.89096847       3.01886701       0.45257612
H        5.36486045      -1.52987575       0.07960035
H        2.79207839      -2.15148954       0.00825710
