12
Properties=species:S:1:pos:R:3 -1293.85552058513=T 11.613774=T 11.37162=T -9.0098=T -7.1685=T -9.267=T -0.1428=T -1.9206=T -0.723=T 8.5853=T 1.16043=T 4.5879903426=T 5.972281634=T 0.292784965=T pbc="F F F"
C        1.18459546      -0.31465980      -0.22835203
C        2.44623605      -0.43096579       0.21463180
N        3.44366296       0.51806034       0.01657258
C        4.75769757       0.42045880       0.46684668
N        5.35361503      -0.50298310       1.13484615
C        5.54137510       1.58764250       0.08903624
N        6.13555541       2.53874503      -0.23233929
H        0.46666665      -1.10601592      -0.02886652
H        0.84089267       0.55475938      -0.79041606
H        2.76349035      -1.31130063       0.77442081
H        3.20036062       1.36034353      -0.50122781
H        4.73076212      -1.28779434       1.35992745
