15
Properties=species:S:1:pos:R:3 -1544.9626334521254=T 10.258049=T 11.46005=T -9.8792=T -7.7024=T -11.162=T 0.6245=T -1.3498=T -0.37=T 10.24931=T 0.97123=T 3.6415804074=T 11.223336706=T 0.243508997=T pbc="F F F"
C        0.82426832       0.83633213      -0.44247279
C        2.29564916       0.43758663      -0.29598224
C        3.05660627       1.38786742       0.59677685
O        4.48560731       1.39297276       0.52368367
C        3.78399270       2.55784117       0.03000288
C        3.91772259       3.78784342       0.86039907
O        3.76753913       4.91656407       0.42817686
H        0.28693650       0.11379618      -1.07098262
H        0.72242360       1.82821390      -0.90581318
H        0.31757364       0.86819943       0.53339786
H        2.79235163       0.39822655      -1.27725943
H        2.37150690      -0.57296481       0.13852643
H        2.66961677       1.49218654       1.62099939
H        3.78808244       2.70141267      -1.05612158
H        4.16470303       3.58600194       1.93497883
