17
Properties=species:S:1:pos:R:3 -1707.5604331740724=T 11.885032=T 13.31474=T -9.7149=T -7.4288=T -9.875=T 0.9333=T -0.0013=T 2.321=T 9.47016=T -1.90482=T 4.358789823=T 10.4331615294=T 0.334049709=T pbc="F F F"
C        0.76294503       0.78257679       0.38288834
O        2.14957027       0.54126244       0.19860644
C        2.86565217       1.74502491      -0.06291677
C        4.33182559       1.39766101      -0.27238821
C        5.20825433       2.63842617      -0.53503183
C        4.88309221       3.34648742      -1.76926120
C        4.60925997       3.92320166      -2.80218128
H        0.28795938      -0.18778566       0.57552643
H        0.30593364       1.23661715      -0.51706103
H        0.57715639       1.45251636       1.24445293
H        2.75373912       2.44696299       0.79092670
H        2.45636355       2.24915124      -0.96069330
H        4.41874628       0.69605137      -1.11541544
H        4.70861462       0.88223968       0.62415604
H        6.26551663       2.32969941      -0.57182064
H        5.12496783       3.33925510       0.31392024
H        4.37188298       4.43586196      -3.71173740
