17
Properties=species:S:1:pos:R:3 -1733.4253898050115=T 13.531394=T 13.79184=T -7.9004=T -5.9998=T -8.295=T 1.1688=T -0.4039=T 0.253=T 7.84303=T 0.29465=T 4.9431854354=T 0.743368427=T pbc="F F F"
C        1.13727796       3.04763687       0.42651744
C        2.64119635       3.22836976       0.39774737
O        3.23451806       1.96869597       0.02310573
C        4.58909329       1.92420417      -0.04423680
C        5.47923257       2.91612376       0.19753259
C        6.90611141       2.69874953       0.08292739
C        7.85570299       3.62814359       0.31274090
H        0.65551574       3.99548591       0.70283332
H        0.84847444       2.28531833       1.16250123
H        0.76032114       2.74226008      -0.55881800
H        3.02946162       3.52694603       1.38718856
H        2.94117071       3.99691438      -0.33608217
H        4.91831329       0.92367524      -0.33690452
H        5.14283149       3.91343315       0.48932869
H        7.21898346       1.69103593      -0.21485997
H        7.59705629       4.64642860       0.61234569
H        8.91451918       3.39366868       0.20782257
