16
Properties=species:S:1:pos:R:3 -1620.1583103178518=T 10.822193=T 11.99211=T -9.1008=T -7.086=T -10.558=T 1.1062=T -0.6565=T 0.138=T 9.58419=T 0.57766=T 3.729374894=T 11.957333826=T 0.18079462=T pbc="F F F"
C        0.85470899      -0.00574973      -0.43826706
C        2.18785104       0.51469803       0.03710704
N        3.39090169      -0.32209597       0.01162568
C        3.28183850       0.80415625      -0.95683309
C        4.21242368       1.97362258      -0.80950176
C        4.87108734       2.19460223       0.53289146
O        4.39632414       2.71754638      -1.76708096
H        0.16451957       0.82216072      -0.65568625
H        0.38804301      -0.63874337       0.33144539
H        0.96499937      -0.60426376      -1.35456623
H        2.14292304       1.15852438       0.92199969
H        3.18973275      -1.19812018      -0.48419968
H        3.04534570       0.58260245      -2.00190372
H        4.12794786       2.56579521       1.25642784
H        5.66451651       2.94218635       0.43015490
H        5.25662681       1.24811843       0.93478673
