18
Properties=species:S:1:pos:R:3 -1809.50890125319=T 11.608059=T 12.68884=T -8.5398=T -6.4828=T -9.729=T 0.9462=T 0.0511=T 3.23=T 9.02464=T -2.90354=T 7.7913918274=T 10.4664765676=T 0.135393672=T pbc="F F F"
C        1.42049545      -0.22172391      -0.42047611
C        2.82890004       0.05545149       0.05060501
C        3.66931999      -1.04151107       0.67366353
C        4.06151698      -0.46175237      -0.67207483
C        5.10060048       0.65915685      -0.68217018
C        4.26807098       1.90519140      -0.29328915
N        3.10560194       1.42818901       0.48846768
H        1.13132492       0.49037563      -1.20774023
H        0.70232676      -0.11575373       0.40705366
H        1.32897869      -1.24160925      -0.82167892
H        3.25634379      -2.05283125       0.68985225
H        4.29264597      -0.79014945       1.53608977
H        3.95222058      -1.09578047      -1.55397691
H        5.90754891       0.46797796       0.04443191
H        5.56933482       0.76857254      -1.67175351
H        4.83203320       2.65718988       0.27819641
H        3.89858278       2.39925478      -1.20846357
H        3.33286374       1.43471194       1.48524321
