19
Properties=species:S:1:pos:R:3 -1785.926401041159=T 11.24476=T 12.43453=T -9.2274=T -6.9118=T -10.618=T 0.938=T -0.0189=T 3.056=T 9.97651=T -2.77117=T 8.749010097=T 10.8507835732=T 0.114670194=T pbc="F F F"
C        0.81422408      -0.48089149       0.21629728
C        2.31520734      -0.36326607      -0.08190260
C        2.76787219      -1.49360162      -1.01483036
C        2.68994596       1.00422668      -0.67828025
C        2.44705531       2.20409270       0.23794589
N        2.87682422       3.44568068      -0.42530642
H        0.47651861       0.26129427       0.95342911
H        0.57016575      -1.47681760       0.61528959
H        0.22284202      -0.33549000      -0.70265474
H        2.86120203      -0.47568558       0.87407056
H        2.25015580      -1.42998108      -1.98569260
H        2.54653401      -2.48115437      -0.58323673
H        3.84970114      -1.44442284      -1.20989725
H        2.13983274       1.16373639      -1.62216684
H        3.76225028       0.98592264      -0.94680909
H        2.94614217       2.01798273       1.21304099
H        1.37036914       2.30357920       0.44890338
H        3.89063365       3.42611471      -0.56815575
H        2.69145357       4.24887064       0.17953582
