20
Properties=species:S:1:pos:R:3 -1887.1648528590279=T 11.778893=T 12.83821=T -9.0402=T -6.9258=T -10.163=T 0.7939=T -0.1588=T 2.94=T 9.4705=T -2.64923=T 8.0687237122=T 10.9965787106=T 0.151017565=T pbc="F F F"
C        0.68587483       0.20192503       1.19998518
N        1.92254712       0.70431592       1.80636470
C        2.83761026       1.39794740       0.86665847
C        2.16921110       2.64165077       0.27422097
C        4.14476290       1.72770816       1.61453156
C        3.99193232       2.71065042       2.78010301
O        3.13256893       2.23252815       3.81374710
H        0.17333013      -0.44975541       1.91985059
H        0.85593357      -0.37238608       0.26646519
H        0.00807294       1.03469437       0.96954954
H        2.43488592      -0.09249272       2.19616662
H        3.09343932       0.72395825       0.01794659
H        1.79254783       3.30908665       1.06281081
H        1.32626142       2.37598022      -0.37767818
H        2.89182059       3.20080526      -0.33675317
H        4.86534853       2.14174218       0.88966931
H        4.58454794       0.78905356       1.99559339
H        3.64242504       3.69152548       2.39868275
H        4.97846189       2.88475833       3.23882313
H        2.38304744       1.79235405       3.34253245
