17
Properties=species:S:1:pos:R:3 -1606.2981045096662=T 11.83974=T 12.45454=T -8.4165=T -6.4199=T -9.181=T 1.4887=T -0.2525=T 0.604=T 8.61558=T -0.09688=T 4.80693722=T 5.3807072322=T 0.392524107=T pbc="F F F"
O        0.92983371       2.65088205      -1.63414178
C        2.32595105       2.31879206      -1.67757413
C        2.75284582       1.93007661      -0.26871671
C        4.23456482       1.57573863      -0.15742813
N        5.07932749       2.74588618      -0.40267268
N        6.38666747       2.48041223      -0.65504831
C        7.26600357       3.38582107      -0.39865828
H        0.66360525       2.93898002      -2.52304316
H        2.92841278       3.17377564      -2.03111742
H        2.50814896       1.47070638      -2.36575469
H        2.15593480       1.06587671       0.06145600
H        2.50395889       2.75628234       0.41933056
H        4.51975442       0.82465924      -0.90909685
H        4.43620362       1.13085646       0.83576902
H        4.90829089       3.52507431       0.24951152
H        8.30060640       3.17691440      -0.67045022
H        7.01906005       4.35565568       0.06514525
