19
Properties=species:S:1:pos:R:3 -1926.720574483031=T 13.389435=T 14.15317=T -8.7149=T -6.6544=T -8.658=T 0.8788=T -0.5716=T 0.762=T 8.04013=T -0.26182=T 5.3630516258=T 6.6053293528=T 0.482637571=T pbc="F F F"
C        2.45556564      -0.49031988       1.47788358
C        2.77184086      -0.00027731       0.05481175
C        3.19495719       1.45892572      -0.02334940
C        2.27125569       2.43391755      -0.12014007
C        4.64745042       1.78215058       0.01766273
C        5.50783426       1.07330579       1.03636078
C        5.18005537       2.66582750      -0.84768881
H        2.13010212      -1.54103810       1.46211038
H        1.65022585       0.11156161       1.92261902
H        3.32830495      -0.42027928       2.14199925
H        1.87357627      -0.12666664      -0.56958357
H        3.55097241      -0.63864109      -0.39261193
H        1.20704172       2.19740811      -0.19427981
H        2.55105295       3.48812780      -0.11089588
H        5.16937135       1.29405587       2.06105683
H        6.55753196       1.38099538       0.94513118
H        5.46272763      -0.02014266       0.91416781
H        4.57220292       3.14427914      -1.61646730
H        6.24237045       2.91670990      -0.81531653
