13
Properties=species:S:1:pos:R:3 -1383.5383432511737=T 9.679169=T 10.65505=T -10.0133=T -7.7611=T -10.309=T 1.0959=T -0.0029=T 2.099=T 9.90298=T -1.69845=T 4.4535399242=T 11.5526311234=T 0.356074818=T pbc="F F F"
C        1.30952340       0.18698567       0.50087633
C        2.45289707       0.05459093       0.11636172
C        3.83606458      -0.11002115      -0.37356866
O        4.68118854       0.95055761       0.05617015
C        5.09567631       0.57891540       1.38496653
C        4.93285340      -0.96207786       1.42445116
O        4.43214757      -1.30553524       0.11719598
H        0.30125156       0.30635727       0.84220914
H        3.85887042      -0.14160041      -1.47346777
H        6.13475290       0.91275182       1.50456471
H        4.46109450       1.07136278       2.13997507
H        5.88105005      -1.49897887       1.55888037
H        4.21901969      -1.27255794       2.20459526
