9
Properties=species:S:1:pos:R:3 -1030.1055957932977=T 12.407223=T 12.14922=T -9.2356=T -7.4135=T -8.982=T -0.4614=T -2.1239=T -1.34=T 8.54453=T 2.13786=T 3.4294031656=T 6.0850345024=T 0.369774059=T pbc="F F F"
C        0.94064240      -0.01878637      -0.00232006
C        2.15502697       0.01901918      -0.00003497
C        3.56982085       0.07553857       0.00251413
C        4.34550208       1.22757581       0.00050231
S        5.99185639       0.82148575       0.00483314
N        5.59126506      -0.92313517       0.00947203
N        4.33398938      -1.08350433       0.00748295
H       -0.12954440      -0.05967074      -0.00430665
H        3.98186127       2.25048731      -0.00331287
