9
Properties=species:S:1:pos:R:3 -1051.139658392073=T 8.507576=T 8.59566=T -10.744=T -8.8243=T -11.165=T -1.3379=T -3.2036=T -1.859=T 10.18401=T 2.41828=T 3.1950200312=T 11.5648065486=T 0.502118674=T pbc="F F F"
C        0.95192634      -0.06744088       0.05416824
C        2.28618952       0.03222311      -0.06136296
C        3.01334315       1.30804091       0.03958024
O        4.22763240       1.41944026      -0.06348958
C        2.19149788       2.51790647       0.28134679
N        1.57277788       3.48945870       0.47150378
H        0.44693178      -1.03007362      -0.02612009
H        0.32902305       0.81213729       0.23222061
H        2.92500799      -0.83540225      -0.23943702
