21
Properties=species:S:1:pos:R:3 -1956.2160247430907=T 12.53315=T 13.84451=T -8.8924=T -6.6248=T -10.362=T 0.9012=T -0.0227=T 3.061=T 10.08497=T -2.74493=T 8.6062030222=T 10.5299202038=T 0.075345677=T pbc="F F F"
C        2.73643716      -0.70789522      -1.13521392
C        2.57302716      -0.03060820       0.22776485
C        3.12398378       1.40420782       0.30374670
C        2.52079355       2.17451333       1.49006253
N        1.07964269       2.41865186       1.28976734
C        4.65977162       1.43412003       0.36781724
N        5.18347174       2.78752808       0.10881473
H        2.31558807      -1.72389461      -1.12569346
H        3.79150267      -0.79529054      -1.43675044
H        2.21259396      -0.14042696      -1.92041146
H        3.06139250      -0.64046592       1.00972259
H        1.50403780       0.01355235       0.48705544
H        2.82086611       1.93344239      -0.62338414
H        3.11510608       3.09302127       1.64536440
H        2.62988711       1.55505374       2.39796139
H        0.95703596       3.14678110       0.58013870
H        0.67143554       2.79563957       2.14792555
H        5.06748372       0.66598815      -0.31756334
H        4.97549013       1.14276872       1.38504691
H        5.05366334       3.01793913      -0.88035718
H        6.19253931       2.80832391       0.27248557
