17
Properties=species:S:1:pos:R:3 -1694.014836025105=T 10.397453=T 11.67938=T -9.5753=T -7.3229=T -11.361=T 0.9617=T 0.062=T 2.822=T 10.827=T -2.52719=T 9.1181536148=T 12.3248035328=T 0.088267942=T pbc="F F F"
C        1.04605742       0.05231385      -0.01065334
C        2.56014971       0.00991892      -0.02786161
O        3.07378889       1.04871264       0.82852129
C        4.38144264       0.64150865       1.21482927
O        4.51697955      -0.75432003       0.94279930
C        3.21176579      -1.24071379       0.57187299
C        3.36468033      -2.42803271      -0.35759852
H        0.63304869      -0.73493774      -0.65707956
H        0.68477627       1.02027386      -0.38230267
H        0.66711192      -0.09013648       1.01124679
H        2.94268138       0.15315619      -1.06005322
H        5.16037983       1.17281103       0.63535700
H        4.49240341       0.85407867       2.29359134
H        2.65040023      -1.53207026       1.48360961
H        3.91843129      -2.14268632      -1.26332879
H        2.37813664      -2.81587206      -0.64942022
H        3.91250600      -3.23820441       0.14167035
