20
Properties=species:S:1:pos:R:3 -1933.7670673533298=T 13.342259=T 14.86576=T -8.7117=T -6.5275=T -9.509=T 0.9668=T 0.0494=T 1.369=T 8.97503=T -0.80414=T 6.6777867712=T 0.470823015=T pbc="F F F"
C        0.77072091       0.82261960      -0.16160065
N        2.19075602       0.54286340       0.03588644
C        3.05034695       1.62984386      -0.43160789
C        4.52883930       1.27732198      -0.28268636
C        5.46022398       2.42343027      -0.71045267
C        6.91361057       2.08476034      -0.55071142
C        7.81360371       2.05985974      -1.54040341
H        0.17669887      -0.05342827       0.13347856
H        0.49989036       1.09379013      -1.20490198
H        0.47005412       1.66097826       0.48617881
H        2.43747840      -0.31204918      -0.47030675
H        2.82167243       2.52296906       0.17772067
H        2.84168490       1.91499216      -1.48921531
H        4.75870887       0.38421051      -0.89010686
H        4.72417144       1.00169010       0.76657268
H        5.22602077       3.31218248      -0.09570981
H        5.25945132       2.70236827      -1.75837094
H        7.23640060       1.82894378       0.46611954
H        7.53454496       2.30506811      -2.56887171
H        8.85697152       1.79813540      -1.35823095
