17
Properties=species:S:1:pos:R:3 -1745.8680447292752=T 11.542009=T 12.81832=T -9.2879=T -7.2337=T -10.74=T 1.1367=T -0.6575=T 0.039=T 9.75291=T 0.61045=T 3.711954861=T 7.131984685=T 0.268419367=T pbc="F F F"
C        0.99961979       0.03355603      -0.04129763
C        2.51006002      -0.02849592      -0.01946219
C        3.32996356      -0.76681277      -1.03001676
C        2.74347338      -1.53647871      -2.19175491
C        3.31599323       0.76849928      -1.05496604
C        4.51739055       1.49324833      -0.60965446
O        4.91633731       2.55265996      -1.06800123
H        0.64243890       0.93858352       0.47072157
H        0.56678247      -0.83728306       0.47397086
H        0.59865471       0.05200039      -1.06324332
H        2.94200921      -0.00754362       0.98654439
H        4.25855248      -1.19313115      -0.63639283
H        1.83646664      -1.06253644      -2.58908564
H        2.48064574      -2.56084373      -1.88668093
H        3.46836951      -1.60671120      -3.01536483
H        2.75333184       1.24497099      -1.86113441
H        5.07591067       0.98358809       0.22505836
