14
Properties=species:S:1:pos:R:3 -1522.8109427258478=T 10.9839=T 11.22751=T -8.5564=T -6.6288=T -9.14=T 1.1653=T -0.2655=T 0.27=T 8.52923=T 0.39848=T 4.334674546=T 5.373305268=T 0.349565277=T pbc="F F F"
C        1.05566114      -0.09657109       0.26582738
C        2.35988237       0.00920296      -0.03154030
C        3.20035168       1.27748758      -0.10656126
C        4.54184097       0.83537014      -0.71776451
C        4.50340339      -0.69354604      -0.71523143
O        5.39543927      -1.47223550      -1.01417843
N        3.22195280      -1.05292999      -0.32124156
H        0.54716319      -1.05932193       0.30881093
H        0.47172210       0.79649264       0.47980462
H        3.33994941       1.67756216       0.90848313
H        2.68915428       2.05026824      -0.69453401
H        4.66546933       1.16325554      -1.76036859
H        5.42408473       1.17983966      -0.16405523
H        2.94128536      -2.03070436      -0.29843074
