20
Properties=species:S:1:pos:R:3 -1938.9189133973678=T 12.405367=T 14.02796=T -9.0935=T -7.0257=T -10.698=T 0.8902=T -0.0098=T 2.882=T 10.08055=T -2.5523=T 8.5336960094=T 11.2486422486=T 0.166307559=T pbc="F F F"
C        1.18030951       0.14316160       0.21898082
C        2.66422225      -0.02497901      -0.13777003
C        2.83595532      -0.74082080      -1.48492366
C        3.37733979       1.31482820      -0.14683925
N        3.74425067       1.99356680       1.12006559
C        4.80791256       1.43912567       0.24119135
C        5.74311979       2.43762446      -0.39400899
H        1.05288203       0.65295184       1.18491268
H        0.67387132      -0.83150612       0.27737367
H        0.66288707       0.74433393      -0.54536691
H        3.14119431      -0.64567943       0.64542210
H        2.39085943      -0.14842210      -2.30007810
H        2.33843748      -1.72181303      -1.47796003
H        3.89780079      -0.89724089      -1.72336116
H        3.00369907       2.01729807      -0.90420492
H        3.57983637       1.34444246       1.89905296
H        5.28062051       0.50789722       0.57784222
H        5.19410500       3.34388456      -0.68427483
H        6.22073671       2.01541808      -1.29129697
H        6.53759001       2.73518849       0.30695348
