13
Properties=species:S:1:pos:R:3 -1340.263204350806=T 8.906953=T 9.639=T -9.2991=T -7.2972=T -10.711=T 0.7611=T -0.2645=T 0.451=T 9.60362=T 0.17424=T 4.2946766624=T 12.4422554706=T 0.369723867=T pbc="F F F"
N        1.15434097       0.29923033      -0.61110471
C        2.35081991       0.05379880       0.03392837
O        2.58975462      -1.03592224       0.55254226
C        3.37158897       1.15304262       0.02508713
C        3.58301419       2.03751834      -1.19463639
C        3.00286263       2.62760968       0.05563182
H        0.84682392       1.24497638      -0.81113110
H        0.43042327      -0.39946224      -0.47228991
H        4.26222378       0.85870022       0.57955909
H        2.92475189       1.87092365      -2.04764444
H        4.61286963       2.28088132      -1.45553516
H        3.63132866       3.27659180       0.66538998
H        1.94556756       2.89620133       0.07231305
