15
Properties=species:S:1:pos:R:3 -1542.3668935565165=T 11.522661=T 12.31985=T -9.5623=T -7.5056=T -10.223=T -0.145=T -1.9128=T -0.815=T 9.54407=T 1.39761=T 3.43999157=T 5.4042645722=T 0.591929001=T pbc="F F F"
C        4.11205299      -0.92971497       1.14171309
O        4.85791266       0.18108616       0.65894278
C        4.10963659       0.95126578      -0.27366462
C        4.90767545       2.14964102      -0.66666936
C        4.92782429       2.70451740      -1.89218809
C        5.70193063       3.92490454      -2.14990087
O        5.75481080       4.49800010      -3.22961725
H        4.75553736      -1.46115941       1.85303780
H        3.83219020      -1.61793020       0.32255541
H        3.19024169      -0.60293693       1.65868821
H        3.15970046       1.29365128       0.19509483
H        3.83317099       0.34756938      -1.16093606
H        5.49005824       2.60910295       0.14101094
H        4.37632569       2.28020837      -2.73640858
H        6.26619197       4.31222453      -1.26106822
