13
Properties=species:S:1:pos:R:3 -1395.2989069145367=T 12.415785=T 12.78533=T -7.9974=T -6.1876=T -8.329=T 1.0715=T -0.4651=T 0.127=T 7.75729=T 0.41133=T 4.3251772184=T 6.1732257442=T 0.367243063=T pbc="F F F"
C        3.03824628      -1.16651209       0.52148932
O        2.29763719       0.03187408       0.28269805
C        3.02899508       1.18126042       0.14412992
C        2.39492677       2.38691044      -0.08878251
S        3.53919821       3.67437695      -0.22360887
C        4.86903081       2.60355275       0.03120506
C        4.45317336       1.30460035       0.21343208
H        2.29380981      -1.96628974       0.60329132
H        3.61136421      -1.10540127       1.46145194
H        3.72249319      -1.39041475      -0.31361645
H        1.32993804       2.56890533      -0.18445980
H        5.88304391       2.99136298       0.03244522
H        5.14037314       0.47999455       0.38862470
