13
Properties=species:S:1:pos:R:3 -1397.7872138653483=T 11.328881=T 12.52564=T -10.1684=T -7.9505=T -9.629=T 1.306=T -0.3724=T 1.722=T 9.32312=T -1.44362=T 4.3651875006=T 10.864025278=T 0.384757947=T pbc="F F F"
C        1.10962781      -0.14122133      -0.45373318
O        2.50348158      -0.05916380      -0.15180656
C        2.95986924       1.30008292      -0.06341296
C        2.38027823       2.01954519       1.08509666
C        1.86350966       2.60193473       2.01480845
C        4.42395630       1.29472829      -0.00524650
C        5.63453252       1.32222976       0.02323227
H        0.88015537      -1.20985043      -0.53772243
H        0.87741023       0.35797567      -1.41288455
H        0.49242135       0.30480332       0.34417731
H        2.65582682       1.84233944      -0.98628873
H        1.42014731       3.11307516       2.84517540
H        6.70494360       1.33626109       0.05553483
