17
Properties=species:S:1:pos:R:3 -1700.2557908639862=T 10.560856=T 11.90342=T -9.2556=T -7.197=T -10.646=T 1.3131=T -0.5032=T 0.26=T 9.6618=T 0.46035=T 3.7649464774=T 8.0501382108=T 0.16649828=T pbc="F F F"
C        0.87568550      -0.13060018       0.57842646
C        2.27293308      -0.43148565       0.07039440
O        2.53253971      -1.47854341      -0.50807912
C        3.32148138       0.64413511       0.32253000
C        4.76077466       0.21680112       0.03517723
C        5.32843281      -0.74150368       1.07378998
O        5.34229970      -0.06933303       2.34801098
H        0.86357279      -0.24720170       1.67372777
H        0.15491284      -0.82847623       0.13828964
H        0.58436932       0.90827960       0.36689990
H        3.22076210       1.00574825       1.35930776
H        3.03961404       1.50423050      -0.31166219
H        5.40350509       1.10990873      -0.00564176
H        4.80901512      -0.27585031      -0.94758445
H        6.35279366      -1.03297440       0.77819026
H        4.71251902      -1.65654898       1.11893393
H        5.65024919      -0.70377573       3.01548919
