21
Properties=species:S:1:pos:R:3 -1952.944732543876=T 12.857822=T 14.41592=T -8.5376=T -6.4164=T -10.019=T 0.9698=T 0.0044=T 3.307=T 9.31618=T -3.08244=T 8.1991197884=T 11.480669649=T 0.145803523=T pbc="F F F"
C        2.08409477      -1.32245273       0.85863320
C        3.14725637      -0.46059222       0.17583942
C        3.00353461       1.02540201       0.49984048
N        4.05734522       1.82062542      -0.13577261
C        3.90174490       3.25895947       0.09235678
C        5.08037848       4.03745461      -0.48835306
N        5.22372627       3.77349397      -1.93320731
H        2.21111598      -2.38545534       0.60951326
H        1.06913305      -1.02731081       0.55120299
H        2.13908434      -1.22915965       1.95424183
H        3.08551087      -0.59867523      -0.91831952
H        4.15599836      -0.78883780       0.47365375
H        3.08375100       1.17088480       1.59210255
H        1.98187788       1.36713686       0.21467231
H        4.00225616       1.66575523      -1.14812634
H        3.86557766       3.43091290       1.18165566
H        2.95571632       3.65657285      -0.33644130
H        5.99087032       3.79121479       0.09115854
H        4.88356043       5.11241755      -0.35431043
H        5.76668247       2.91667306      -2.06764485
H        5.77153456       4.51669026      -2.37056537
