14
Properties=species:S:1:pos:R:3 -1435.1626008392902=T 11.164022=T 11.98366=T -9.3686=T -7.3378=T -9.97=T 1.6242=T -0.0697=T 0.529=T 9.66084=T 0.19893=T 4.3605380256=T 10.3339479322=T 0.377312686=T pbc="F F F"
C        1.23451462       0.05605983      -0.53974250
C        2.65244463       0.21403274      -0.08875243
C        3.72175396      -0.79510244      -0.48024071
C        3.27014969      -1.89925647      -1.31326160
C        2.90435695      -2.82406292      -2.00870289
N        2.92138668       1.23984621       0.64274660
O        4.30160301       1.27109103       1.00120072
H        0.62546348       0.88135007      -0.15412808
H        0.82087966      -0.90152029      -0.18923099
H        1.17790587       0.03973542      -1.63852731
H        4.18200850      -1.18285419       0.44535614
H        4.53835603      -0.24981776      -0.98498265
H        2.58536651      -3.64218750      -2.62139475
H        4.34004041       2.08155627       1.53809046
