16
Properties=species:S:1:pos:R:3 -1633.2892000996783=T 11.034813=T 12.08878=T -9.3239=T -7.3702=T -10.449=T 0.7957=T -0.1195=T 0.414=T 9.87617=T 0.17687=T 4.3539295718=T 6.1900258472=T 0.239819533=T pbc="F F F"
O        1.31251871       0.60037382       2.55152865
C        2.19764548       0.96678618       1.78812240
N        3.48136241       0.49397716       1.78562386
C        4.53293012       0.93523381       0.90084001
C        5.87969218       1.43453480       1.49460985
C        6.59644289       0.76891989       0.28807485
C        5.33250106      -0.10699593       0.06964883
H        2.03960664       1.74052743       0.99920679
H        3.69408477      -0.21540273       2.48744392
H        4.09875998       1.70029716       0.23841624
H        6.10664027       0.90752191       2.43388965
H        5.99993137       2.51446693       1.65534791
H        6.74835951       1.47874734      -0.53707408
H        7.54332877       0.25122953       0.48544889
H        4.99716775      -0.30951715      -0.95649000
H        5.40846806      -1.06092014       0.61304223
