16
Properties=species:S:1:pos:R:3 -1638.7980328876527=T 10.560732=T 11.30178=T -8.9814=T -6.9325=T -10.362=T 0.7623=T -0.8219=T 0.255=T 9.60916=T 0.47309=T 3.7574949188=T 11.4972093814=T 0.114513521=T pbc="F F F"
O        1.02783803       0.04224201       0.19124826
C        2.24938559       0.01803647       0.11004007
C        3.04567074      -1.27225352       0.03428475
C        4.01603222      -1.23991360      -1.17959394
N        4.85326319      -0.04601370      -1.24780541
C        4.06240680       1.18023545      -1.20492964
C        3.09435868       1.27508500       0.00751563
H        2.35023943      -2.12163212      -0.02026600
H        3.64126078      -1.37065224       0.95881554
H        4.66176614      -2.13011412      -1.16757294
H        3.42257317      -1.29017791      -2.10848293
H        5.53250177      -0.05100687      -0.48195101
H        4.74176247       2.04511122      -1.21114347
H        3.47101671       1.23383807      -2.13494984
H        3.69353235       1.37007025       0.93009432
H        2.43186193       2.14907563      -0.06517339
