11
Properties=species:S:1:pos:R:3 -1269.2741913925677=T 9.806045=T 9.44173=T -8.942=T -7.1481=T -9.447=T -0.333=T -1.9774=T -1.042=T 8.87799=T 1.71679=T 3.8803030518=T 6.909553801=T 0.435967215=T pbc="F F F"
O        1.01150302       0.05320178       0.23029255
C        2.22387799      -0.01149983       0.08833885
N        2.97246574       1.20692251      -0.03520973
C        4.31582904       1.26336598      -0.19675565
C        5.02651254       0.09250906      -0.24820953
C        4.27284361      -1.10803189      -0.12435054
N        2.96851637      -1.18563871       0.03310111
H        2.41208168       2.05741874       0.00715644
H        4.76407355       2.25418421      -0.27831572
H        6.10562978       0.08631133      -0.37662753
H        4.80435668      -2.06759317      -0.16028026
