17
Properties=species:S:1:pos:R:3 -1754.028620154336=T 11.346191=T 12.27518=T -8.3446=T -6.2592=T -8.971=T 0.9444=T 0.0094=T 1.307=T 8.51225=T -0.73964=T 6.0102461472=T 0.279248174=T pbc="F F F"
C        0.99264342      -0.08241170       0.44957365
C        2.39347817       0.00348993      -0.12927832
C        2.65172997       1.27182285      -0.94313359
C        4.08877606       1.28402345      -1.48047488
C        4.44108012      -0.07769397      -2.01245935
C        3.68124197      -1.15611540      -1.75872842
O        2.57552433      -1.18477941      -0.95021611
H        0.82684061       0.73587970       1.16399699
H        0.84925548      -1.03622711       0.97488870
H        0.23960258      -0.00881526      -0.34834342
H        3.14372804      -0.05903137       0.68304093
H        2.45288728       2.15285876      -0.31425836
H        1.93505997       1.29635599      -1.78091463
H        4.79381844       1.59311080      -0.68763492
H        4.18572604       2.03923775      -2.27784897
H        5.30826105      -0.20278830      -2.66137578
H        3.87269647      -2.14072671      -2.18906354
