17
Properties=species:S:1:pos:R:3 -1687.304446301674=T 10.610809=T 11.88729=T -9.146=T -7.0676=T -10.662=T 1.0661=T -0.722=T 0.152=T 9.75715=T 0.57801=T 3.7504897098=T 12.2235193694=T 0.180222462=T pbc="F F F"
C        0.97349523      -0.18620873       0.23112761
C        2.38264598       0.20322138      -0.19907134
C        2.86205466       1.51600082       0.38875721
O        2.18364749       2.20040861       1.14110996
C        4.30448017       1.94755036       0.07522555
O        4.87086575       1.40858778      -1.11082731
C        4.49192007       2.14339149      -2.27219493
H        0.68817328      -1.15105633      -0.20900926
H        0.24089071       0.56873262      -0.08492976
H        0.90271612      -0.26736477       1.32406658
H        2.47084551       0.27077565      -1.29678422
H        3.12613657      -0.56580982       0.07694194
H        4.92523555       1.58385478       0.91230065
H        4.34298966       3.05173953       0.09068887
H        4.97912699       1.65995539      -3.12806279
H        4.83051586       3.19351583      -2.20625014
H        3.39763038       2.13948541      -2.43311863
