17
Properties=species:S:1:pos:R:3 -1643.7187959171163=T 11.096303=T 11.99955=T -8.9396=T -6.7608=T -10.28=T 0.7429=T -0.2538=T 0.356=T 9.95222=T 0.20342=T 4.3464284188=T 9.2401062444=T 0.208537831=T pbc="F F F"
C        1.02087302      -0.22427182       0.14242824
N        2.46885185      -0.04938475       0.02280102
C        2.85562466       1.35805196      -0.07998807
C        4.37629373       1.52106697      -0.08416636
N        5.03071543       0.83696266      -1.19949776
C        5.30752887       1.45131482      -2.38853546
O        5.00510613       2.60465138      -2.67521259
H        0.77826030      -1.29585237       0.13210590
H        0.43505310       0.27407061      -0.65801666
H        0.68208037       0.18396793       1.10701118
H        2.78176943      -0.52638629      -0.82738909
H        2.46316727       1.88526987       0.80589857
H        2.43065112       1.86527395      -0.97174192
H        4.79275628       1.11852567       0.85002006
H        4.62982975       2.58764979      -0.16119908
H        5.37755412      -0.10809254      -1.06262321
H        5.85274458       0.77415215      -3.08733477
