12
Properties=species:S:1:pos:R:3 -1271.6021986100495=T 9.820599=T 11.17549=T -9.5578=T -7.2709=T -9.38=T 0.8356=T -0.0312=T 2.069=T 8.98764=T -1.61027=T 4.139644568=T 10.216880351=T 0.447180921=T pbc="F F F"
C        0.95686342       0.00384053       0.01329392
C        2.40929173      -0.04475407       0.01096991
C        3.62542209      -0.07599120      -0.00358781
C        5.06149491      -0.11825107       0.02240289
C        5.84954162      -0.67625611      -1.10159074
O        5.78415713       0.74233789      -0.90405441
H        0.59705499       0.96187584      -0.39036476
H        0.55916139      -0.10054764       1.03362885
H        0.52889731      -0.80240125      -0.60052864
H        5.51515938      -0.15762282       1.01972107
H        5.31293337      -1.05294217      -1.97803392
H        6.81942266      -1.13925792      -0.88866637
