20
Properties=species:S:1:pos:R:3 -1938.5742421114423=T 13.320945=T 14.5152=T -8.5992=T -6.4786=T -8.734=T 0.9093=T 0.0134=T 1.512=T 8.16095=T -0.8218=T 6.0847493346=T 0.389935136=T pbc="F F F"
C        1.56502953       0.42193178      -1.47823120
N        3.00906690       0.50514226      -1.27473792
C        3.36287607       1.23292825      -0.04854716
C        4.86110610       1.29552785       0.15085964
C        5.53341638      -0.03259764       0.37556799
C        5.48661081       2.48832714       0.11827361
C        6.94671242       2.77344144       0.30185765
H        1.35542136      -0.05768094      -2.44437866
H        1.04333355       1.40293572      -1.45504607
H        1.12062907      -0.20709829      -0.69088775
H        3.43642736       0.99213868      -2.06733096
H        2.90220235       0.68275878       0.79411053
H        2.94063986       2.26157496      -0.02302124
H        5.22254088      -0.46070805       1.34369310
H        6.62806156       0.03118193       0.37089149
H        5.21809277      -0.74703766      -0.39936869
H        4.85941776       3.37190020      -0.05393265
H        7.54125893       1.87029292       0.48749269
H        7.10695310       3.46012240       1.14897686
H        7.36401323       3.27583827      -0.58601128
