13
Properties=species:S:1:pos:R:3 -1364.371424154847=T 10.181825=T 10.36045=T -8.9482=T -6.945=T -10.021=T 0.2631=T -1.4109=T -0.388=T 9.61694=T 0.90596=T 4.0668399888=T 5.5101362176=T 0.290734371=T pbc="F F F"
C        1.02381485      -0.04304566       0.14642890
C        2.34194640       0.03751375      -0.05858073
C        3.27364590       1.22011416      -0.01889459
N        4.52919082       0.77225446      -0.69676698
N        4.43179392      -0.65763402      -0.70904894
C        3.21079084      -1.16715374      -0.30344727
O        2.93739561      -2.35316427      -0.15616254
H        0.53977178      -1.02139808       0.12669163
H        0.40781303       0.83489799       0.34645617
H        3.51843339       1.47294632       1.02734494
H        2.88513960       2.12407243      -0.50551136
H        4.45812093       1.05828701      -1.68082933
H        5.29346294      -1.17741034      -0.55955989
