17
Properties=species:S:1:pos:R:3 -1728.715894682787=T 11.892335=T 12.95218=T -8.7344=T -6.6429=T -9.237=T 1.0717=T -0.085=T 1.123=T 8.75617=T -0.54762=T 6.2379960306=T 0.39413462=T pbc="F F F"
C        1.11078170      -0.09276402       0.18591428
C        2.59540644      -0.16458932      -0.09173974
C        3.11514080      -0.68196110      -1.39368441
O        2.16926139      -1.13393279      -2.33099922
C        3.23214503       0.81848467      -1.07245422
C        4.55654887       1.43686825      -0.85472165
C        5.50200287       1.03794767       0.01233604
H        0.88964009       0.70614163       0.90813548
H        0.74473424      -1.04179897       0.60495100
H        0.54460994       0.10140272      -0.73403358
H        3.21389759      -0.40589892       0.77787755
H        4.06352891      -1.23298735      -1.37650326
H        2.55294317      -1.01951563      -3.21778803
H        2.50788830       1.42697479      -1.62065286
H        4.78146389       2.29034696      -1.50423090
H        5.35436440       0.20313700       0.70175011
H        6.46541237       1.54515441       0.06058341
