15
Properties=species:S:1:pos:R:3 -1601.9111817994371=T 11.779977=T 12.278=T -9.354=T -7.2749=T -9.392=T -0.4113=T -2.126=T -0.828=T 8.8081=T 1.45176=T 3.4045191754=T 5.9491210492=T 0.291825577=T pbc="F F F"
C        1.06675623      -0.00122324      -0.09072254
C        2.56751690      -0.10622861       0.02293681
C        3.19891697      -1.28321777       0.17876842
C        3.33575476       1.16530511      -0.05208903
C        4.33238054       1.38155314      -0.93387187
C        2.99762532       2.25059273       0.92660740
O        3.51119586       3.35805884       0.94520811
H        0.64492939       0.66305085       0.67980965
H        0.59036349      -0.98460134       0.01012498
H        0.78232176       0.43002540      -1.06349657
H        2.64239124      -2.22151079       0.22102365
H        4.28348098      -1.33496892       0.28304158
H        4.61143762       0.63041655      -1.67321856
H        4.87134580       2.33084728      -0.91586664
H        2.23367316       1.97127078       1.69467460
