14
Properties=species:S:1:pos:R:3 -1358.766201727617=T 10.629198=T 11.86706=T -9.2309=T -6.8654=T -9.166=T 1.0153=T -0.1543=T 2.443=T 8.80054=T -1.9956=T 4.1873915766=T 10.3737350396=T 0.700536479=T pbc="F F F"
N        0.97871665      -0.08715292       0.06361704
C        2.45235949      -0.02396012      -0.02463038
C        2.93420249       1.35474169       0.00941808
C        3.33585977       2.50222781       0.01353391
C        3.83388951       3.87557692      -0.00953025
N        2.73418399       4.85028730      -0.16374380
H        0.68271835      -1.05699541      -0.07391372
H        0.57421483       0.45079987      -0.70747105
H        2.87277598      -0.51399764      -0.92716297
H        2.86311692      -0.56718632       0.84367041
H        4.61332013       3.94464756      -0.79666299
H        4.33851082       4.09043048       0.94776806
H        2.23511646       4.65694182      -1.03609039
H        3.13620461       5.78611896      -0.26223194
