15
Properties=species:S:1:pos:R:3 -1402.7463918505696=T 10.645204=T 12.18027=T -10.823=T -8.4011=T -10.39=T 0.7706=T -0.2514=T 0.05=T 10.06038=T 0.28432=T 5.335179573=T 12.1484086506=T 0.097872259=T pbc="F F F"
C        1.42311310      -0.38771821       1.04391383
S        3.20914507      -0.27836741       0.84435154
O        3.81651015      -0.31854615       2.18560162
O        3.60693550      -1.24349607      -0.19475770
C        3.43011987       1.39386152       0.17504387
C        4.90804278       1.67601201      -0.06440687
O        4.97540616       3.00841354      -0.59075000
H        0.94398345      -0.27521748       0.06527169
H        1.09312063       0.37562490       1.75688879
H        1.24081281      -1.39155672       1.44605064
H        3.01185805       2.09635420       0.90921806
H        2.86516394       1.44501066      -0.76604940
H        5.31550167       0.93921078      -0.77695999
H        5.46093683       1.58883781       0.88603771
H        5.91127999       3.21463661      -0.75386379
