14
Properties=species:S:1:pos:R:3 -1484.1450330706416=T 10.574735=T 11.5277=T -10.269=T -8.0227=T -9.809=T 0.8257=T -0.745=T 0.725=T 9.19342=T -0.1861=T 5.359542822=T 6.4342286728=T 0.418106275=T pbc="F F F"
O        3.07351498      -0.92488782       0.49937167
C        2.22692396       0.02622687      -0.16900503
C        2.77468122       1.40833541       0.06508920
C        2.03093421       2.39842688       0.57143417
C        4.23438937       1.61546614      -0.30653327
C        4.49520281       1.36401938      -1.72451314
N        4.68480796       1.15647787      -2.85666539
H        2.92973006      -1.79379243       0.08915659
H        1.19000083      -0.02845082       0.20563049
H        2.21196488      -0.17117503      -1.25720941
H        0.99715591       2.22499920       0.87491037
H        2.42366788       3.40921171       0.69396471
H        4.85711411       0.91721190       0.27626318
H        4.55382181       2.63874073      -0.06313415
