19
Properties=species:S:1:pos:R:3 -1804.5260598270202=T 12.097713=T 13.17311=T -8.3252=T -6.2654=T -9.751=T 0.9517=T 0.0014=T 3.181=T 9.00477=T -2.87516=T 7.8811824886=T 10.7512972068=T 0.10101172=T pbc="F F F"
C        0.95975314       0.03326598       0.09818917
N        2.40816939       0.03372036       0.07705415
C        3.11663697       1.01679042       0.92890396
C        4.18522512      -0.06596468       1.24852801
C        5.44183818      -0.01019454       0.38891603
N        6.32489333       1.08173376       0.83429459
C        3.11690137      -1.07664919       0.75680163
H        0.57853814      -0.80963351      -0.49754754
H        0.58020631       0.96172789      -0.35415013
H        0.54003682      -0.04954736       1.12695723
H        2.54050094       1.30156237       1.83368644
H        3.43397065       1.93572868       0.40572398
H        4.46697083      -0.14118172       2.30709075
H        5.14148336       0.05116578      -0.67665476
H        5.99457306      -0.95640248       0.51498476
H        5.87942266       1.98264792       0.63778581
H        7.18721720       1.07416297       0.28458760
H        3.44405903      -1.89320110       0.09107034
H        2.53920353      -1.50668157       1.60134796
