12
Properties=species:S:1:pos:R:3 -1238.4785884444937=T 9.16373=T 9.9943=T -9.9087=T -7.8041=T -11.012=T 0.795=T -0.2598=T 1.287=T 10.43549=T -0.91184=T 5.339395097=T 11.1372656248=T 0.295925524=T pbc="F F F"
C        1.13022303      -0.01745515      -0.06479902
N        2.59059201      -0.07670907      -0.00639349
C        3.25512957      -0.71744229      -1.13263632
C        3.28239669       0.77951940      -0.98597407
C        4.46570649       1.47627907      -0.54491164
N        5.42988214       2.04680186      -0.21710060
H        0.78130741       0.82909005       0.54177360
H        0.72684745      -0.94369784       0.36712415
H        0.73566424       0.09311839      -1.09457430
H        2.64060336      -1.10170741      -1.95440869
H        4.15104322      -1.29215803      -0.89163548
H        2.66641440       1.34499103      -1.69452415
