13
Properties=species:S:1:pos:R:3 -1337.6482096688844=T 9.452656=T 9.79152=T -8.6563=T -6.6384=T -9.239=T 1.1265=T -0.6375=T 0.521=T 8.74972=T 0.06901=T 5.0156924482=T 5.2409254158=T 0.133023059=T pbc="F F F"
C        1.72424117      -0.47564003       0.15821312
O        0.85356878      -1.64990797       0.09762847
C       -0.18486334      -0.87594876      -0.59420575
C       -1.40814297      -0.55685197       0.21662238
N       -1.36755089       0.60659994       0.78477094
N       -0.13607067       1.20239968       0.54991557
C        0.63763937       0.43264451      -0.44085487
H        2.61507136      -0.61055769      -0.47815020
H        2.02031835      -0.22848642       1.18886311
H       -0.38800021      -1.30204553      -1.58974813
H       -2.28349006      -1.19197710       0.33932316
H       -0.24374342       2.20245177       0.38953917
H        0.90375254       1.02644956      -1.32553697
