21
Properties=species:S:1:pos:R:3 -2016.1087980573857=T 12.166331=T 13.59143=T -10.047=T -7.7728=T -11.957=T 0.8331=T -0.1256=T 2.728=T 11.5045=T -2.42041=T 9.7918935388=T 10.6298529198=T 0.135439907=T pbc="F F F"
C        3.20114852      -0.75054467       1.62591211
C        2.73275204      -0.10149498       0.31425423
C        1.22558669      -0.31458577       0.11855806
C        3.12530653       1.39467028       0.17714850
C        2.54929722       2.30874658       1.26542808
C        4.64947714       1.56255575       0.07125192
O        5.05652815       2.88976653      -0.28959440
H        4.28829061      -0.67045143       1.76868188
H        2.94739776      -1.82097245       1.63267925
H        2.71103659      -0.29416672       2.49942354
H        3.24551536      -0.62763248      -0.51347152
H        0.64397868       0.13329451       0.93887850
H        0.98364735      -1.38760272       0.09411667
H        0.87512453       0.13074451      -0.82506664
H        2.71000105       1.72641969      -0.79660332
H        2.89641395       2.00888274       2.26603669
H        1.45055988       2.30207310       1.27041451
H        2.88189871       3.34237255       1.10047208
H        5.05624816       0.82228557      -0.64518316
H        5.12869286       1.37759718       1.04522799
H        4.70781821       3.06941223      -1.18042497
