16
Properties=species:S:1:pos:R:3 -1613.058185251764=T 11.005043=T 12.23776=T -9.4964=T -7.366=T -10.88=T 0.9503=T -0.9672=T -0.106=T 9.97689=T 0.73854=T 3.6798548856=T 9.9081676096=T 0.215525046=T pbc="F F F"
C        1.07041602       0.22631948      -0.68789693
C        2.41132093       0.94868528      -0.85877887
C        2.64718152       1.99408146       0.20876562
N        3.14255569       1.64445449       1.54134157
C        4.05406172       2.36103324       0.60386330
C        4.36058983       3.76768469       0.96888492
O        5.32976440       4.38538707       0.56247885
H        0.92272801      -0.51990574      -1.48052779
H        0.23024487       0.93460373      -0.73415917
H        1.01447295      -0.29279885       0.27994121
H        2.44826601       1.43804769      -1.84623491
H        3.24075949       0.22117265      -0.84155549
H        1.90174645       2.79837366       0.23816401
H        3.41740257       0.65517830       1.56075015
H        4.86383482       1.81640708       0.11022819
H        3.60318472       4.23392578       1.65102535
