16
Properties=species:S:1:pos:R:3 -1664.2378019424434=T 11.390519=T 12.13057=T -8.9233=T -6.9007=T -9.183=T 1.2476=T -0.2183=T 1.406=T 8.55953=T -0.75901=T 6.3705122674=T 0.395280836=T pbc="F F F"
C        1.51910811       0.10590135       1.02881374
C        2.33443764      -0.04591736      -0.02019265
C        2.87429716      -1.34932908      -0.57281107
C        4.19134204      -0.93706411      -1.21200791
C        5.08932361      -0.07159950      -0.39985371
N        4.21895097       0.53974419      -1.42776761
C        2.95675147       1.06191431      -0.85107008
H        1.20385077       1.09598578       1.36492385
H        1.12772446      -0.75175353       1.57958092
H        2.19530303      -1.74616794      -1.34771938
H        2.98358741      -2.12366056       0.20018879
H        4.60274848      -1.54578062      -2.02034350
H        4.82842618       0.07444967       0.65406033
H        6.15589981      -0.02574473      -0.62807874
H        3.14458998       1.97960332      -0.27453875
H        2.29776888       1.32575879      -1.69644424
