14
Properties=species:S:1:pos:R:3 -1446.494925672642=T 9.642308=T 10.7676=T -9.511=T -7.4953=T -10.925=T 0.8997=T -0.0839=T 0.268=T 9.87006=T 0.35738=T 4.361083564=T 11.2325488658=T 0.160280739=T pbc="F F F"
C        0.97230664      -0.08657039      -0.30774592
C        2.20837828       0.67624963       0.07744970
O        3.43122235      -0.08459142       0.23340720
C        3.34193617       0.86234664      -0.85653254
C        4.20762402       2.09965274      -0.79179813
N        4.89036405       2.24066837       0.38205255
O        4.23701767       2.89897751      -1.72528235
H        0.21198203       0.60213420      -0.70391794
H        0.54499365      -0.59505848       0.56824512
H        1.19960480      -0.84059988      -1.07224932
H        2.08023853       1.44839658       0.84712578
H        3.26666737       0.43008544      -1.85969455
H        4.92210645       1.45829256       1.03028795
H        5.54485798       3.01016648       0.47426244
