15
Properties=species:S:1:pos:R:3 -1577.9245610405617=T 12.026726=T 12.57886=T -9.1987=T -7.0743=T -8.861=T 0.55=T -1.0131=T 0.497=T 8.36076=T 0.05533=T 4.0619425418=T 6.0668333576=T 0.443068179=T pbc="F F F"
C        1.10321564      -0.09852627       0.30712728
C        2.54694753       0.03216523      -0.18212307
O        2.73888707      -0.63191528      -1.43071980
C        3.00904706       1.49648945      -0.22419999
C        3.49937497       2.06453212      -1.34360935
C        2.91438641       2.21771764       1.00062813
C        2.82608287       2.77955997       2.07741116
H        0.97619721       0.36608311       1.29365797
H        0.82851766      -1.15940974       0.37361347
H        0.41561691       0.40506875      -0.39155680
H        3.21294656      -0.49683945       0.52148743
H        2.01427716      -0.35691529      -2.02266353
H        3.60368452       1.47690403      -2.25537646
H        3.82160605       3.10489236      -1.35104354
H        2.75514237       3.29744336       3.01208710
