12
Properties=species:S:1:pos:R:3 -1141.0251846962565=T 7.546435=T 8.24894=T -9.6276=T -7.2436=T -10.898=T 0.9205=T -0.1243=T 2.922=T 10.29411=T -2.65787=T 8.663459757=T 11.9583753084=T 0.197574774=T pbc="F F F"
N        1.00848213       0.17567737       0.10653356
C        2.44036274      -0.04893333      -0.15357849
C        3.19469794       1.25825129      -0.05650596
C        3.86126388       1.68280270       1.18158004
O        4.62725019       1.16118728       0.07233272
H        0.52416979      -0.72297855       0.15458085
H        0.58622004       0.67874672      -0.67852729
H        2.66116813      -0.50762255      -1.13858469
H        2.83347056      -0.73234641       0.61431120
H        2.86478066       2.04536840      -0.74960468
H        3.80938218       1.03138495       2.06054600
H        4.00656176       2.74878213       1.38498675
