18
Properties=species:S:1:pos:R:3 -1809.6941428588261=T 11.50468=T 12.71228=T -9.1219=T -6.9998=T -10.722=T 0.9171=T 0.0189=T 2.904=T 10.09896=T -2.5603=T 8.5125315992=T 11.3430699862=T 0.27054554=T pbc="F F F"
C        1.93101087       0.13442675      -0.66512727
N        1.72477162      -0.02041250       0.79723171
C        0.55427198       0.04916530      -0.11394406
C       -0.37187815       1.26497542       0.06473458
C       -1.80368453       0.71410143      -0.11495699
C       -1.68573536      -0.77370743       0.26085811
C       -0.33560810      -1.17402903      -0.35537403
H        2.33697963       1.10453084      -0.96584360
H        2.30860778      -0.71823490      -1.23798779
H        1.89528406      -1.00027202       1.05141944
H       -0.22332480       1.66582374       1.07869832
H       -0.14078703       2.07247593      -0.64513233
H       -2.54652134       1.25442902       0.48847397
H       -2.11485139       0.80005511      -1.16929509
H       -2.52616246      -1.38112074      -0.10389871
H       -1.64543432      -0.88295185       1.35741766
H       -0.45924249      -1.33761646      -1.44008892
H        0.09111402      -2.09612861       0.06862500
