15
Properties=species:S:1:pos:R:3 -1594.290042514792=T 11.929312=T 12.45439=T -9.3792=T -7.276=T -9.679=T 0.6055=T -1.2559=T -0.239=T 9.88489=T 0.86786=T 3.6038638662=T 6.3562414788=T 0.404129992=T pbc="F F F"
C        2.08935925      -1.18227856       0.61607460
C        3.15430368      -0.38257615       0.73076414
C        3.15502626       1.08794723       0.37665345
C        3.49570163       1.95735968       1.56649463
C        2.68511343       2.89401708       2.06891612
C        4.20402373       1.32758510      -0.72511849
O        5.39068042       1.10890254      -0.58702065
H        2.14462440      -2.23747267       0.88655856
H        1.12621762      -0.81006718       0.25861487
H        4.11051551      -0.77758314       1.08715826
H        2.16639618       1.37308460      -0.01807721
H        4.48342292       1.78390908       2.00429002
H        1.69662598       3.08695210       1.64503889
H        2.98171679       3.49379587       2.93027320
H        3.79782220       1.72677442      -1.68884039
