18
Properties=species:S:1:pos:R:3 -1787.1836007653042=T 11.36598=T 12.52625=T -9.3388=T -7.3454=T -10.736=T 0.7=T -0.2714=T 0.566=T 9.65789=T 0.08923=T 4.352218565=T 12.9932740518=T 0.129017157=T pbc="F F F"
C        1.02833098      -0.23282442       0.42471954
C        2.25379000      -0.50535920      -0.45511899
C        1.95261486      -1.56939639      -1.51547976
C        2.76415068       0.78517778      -1.11753170
C        3.30987806       1.79734414      -0.11173427
N        2.97772540       3.10665661      -0.35909053
O        4.00360007       1.47329815       0.85007634
H        1.25557884       0.49722255       1.21455241
H        0.68400066      -1.15612274       0.91298446
H        0.19094953       0.15835523      -0.17655003
H        3.06828614      -0.86780766       0.19387929
H        1.15279531      -1.23616987      -2.19707123
H        1.61816316      -2.50668259      -1.04699174
H        2.84050390      -1.79564408      -2.12492669
H        1.96831084       1.23230818      -1.73808578
H        3.59976698       0.54166472      -1.79590038
H        2.47754716       3.38297691      -1.19561026
H        3.40436742       3.82447268       0.21878930
