15
Properties=species:S:1:pos:R:3 -1539.7527705009902=T 11.83013=T 11.63666=T -7.6142=T -5.7299=T -8.056=T 0.4503=T -1.1505=T -0.042=T 7.56196=T 0.56293=T 3.6553428534=T 6.0987969484=T 0.411893301=T pbc="F F F"
C        1.01421888      -0.02014876       0.18286558
N        2.46456766       0.02025478       0.24193596
C        3.08040420       1.23973077      -0.29647754
C        4.54343529       1.21818975       0.06190866
C        5.16308286       0.02031714       0.08429633
C        4.36946485      -1.17871612      -0.08397161
N        3.06467286      -1.17812194       0.03540263
H        0.59799400       0.78573113       0.80385778
H        0.67625844      -0.98804867       0.56740672
H        0.64346252       0.10705909      -0.85347407
H        2.56409083       2.10269007       0.14991546
H        2.92481546       1.30474145      -1.40316255
H        5.06870700       2.15639383       0.24331790
H        6.23086492      -0.07050369       0.29114595
H        4.83027024      -2.16196883      -0.18690720
