15
Properties=species:S:1:pos:R:3 -1509.5824538368065=T 10.006444=T 10.73594=T -8.9996=T -6.9636=T -10.417=T 0.8418=T -0.2945=T 0.473=T 9.7373=T 0.20541=T 4.3174776878=T 6.1551361868=T 0.094273703=T pbc="F F F"
C        0.97303467      -0.02336370       0.01272179
C        2.49397518       0.04595551       0.01244446
C        3.13246899       1.12010469       0.90220350
N        4.48134709       0.60187975       1.26437435
N        4.32703986      -0.82132168       1.18262193
C        3.14361294      -1.22752058       0.59625991
O        2.71076682      -2.37166122       0.57459333
H        0.63487728      -0.93325504      -0.50084984
H        0.53472373       0.84820599      -0.49272171
H        0.58380056      -0.05766208       1.04105501
H        2.86415163       0.14504508      -1.02539360
H        2.54524117       1.23388092       1.82977483
H        3.23377796       2.10720602       0.43224674
H        5.12549344       0.85587367       0.50455789
H        4.73609867      -1.36573733       1.93941140
