13
Properties=species:S:1:pos:R:3 -1428.66843514534=T 10.568047=T 10.88554=T -9.9259=T -7.8394=T -9.74=T -0.2304=T -1.9056=T -0.728=T 9.29433=T 1.34658=T 4.0893558464=T 5.872782869=T 0.347443711=T pbc="F F F"
O        2.68738688      -0.89168014       0.15171446
C        2.04105486       0.31498142       0.21779805
O        0.83512631       0.35380000       0.33039402
C        2.94242099       1.52749273       0.15735377
C        2.44189564       2.70390679       0.57594875
C        4.31765586       1.36213531      -0.35622076
C        5.42350108       1.83197681       0.24267185
H        3.65357808      -0.73156549       0.14381979
H        1.41826980       2.75503930       0.94799958
H        3.03418147       3.61773118       0.53279980
H        4.42058754       0.81460287      -1.30145702
H        5.37181936       2.35723497       1.19863393
H        6.40864214       1.70001427      -0.20611623
