15
Properties=species:S:1:pos:R:3 -1535.3598707274562=T 10.199727=T 11.55124=T -9.8687=T -7.6138=T -10.972=T 0.9842=T -1.1104=T -0.04=T 10.14256=T 0.6524=T 3.6637491042=T 11.621889703=T 0.24454224=T pbc="F F F"
O        1.10733883       1.53451324      -2.30524286
C        1.90720131       2.35776095      -1.90743663
C        3.18413415       1.99513970      -1.17535627
O        3.87439641       3.19583695      -0.85439628
C        5.10771230       2.95150494      -0.21789379
C        6.32005407       2.64371069      -1.06415397
C        6.15798090       3.99854940      -0.39380349
H        1.75880515       3.45780904      -2.05664859
H        3.79053281       1.33177214      -1.82257648
H        2.91985097       1.41602656      -0.26791237
H        5.01674806       2.45537874       0.75643310
H        6.17019108       2.61390394      -2.14393092
H        7.06469218       1.94751614      -0.67738547
H        6.78844851       4.24669370       0.45941883
H        5.89658329       4.83742386      -1.03861484
