13
Properties=species:S:1:pos:R:3 -1424.9480382128452=T 10.983956=T 11.01715=T -9.512=T -7.5199=T -9.509=T -1.0408=T -2.7771=T -1.281=T 8.77034=T 1.67689=T 3.601607321=T 5.5328876486=T 0.402022106=T pbc="F F F"
C        0.92534169       0.03268851      -0.00599591
C        2.41409358       0.06208023      -0.00258226
C        3.27278887       1.10675167       0.00187309
C        4.63680109       0.52819219       0.00274474
N        4.67346488      -0.77051948      -0.00055075
C        3.29331400      -1.16330090      -0.00428084
N        2.96806337      -2.40315819      -0.00793552
H        0.50572165       1.04622917       0.00233029
H        0.53406934      -0.50256012       0.87363628
H        0.53805042      -0.48628121      -0.89710984
H        3.03436973       2.16952332       0.00431793
H        5.55815121       1.11727580       0.00611895
H        1.93931018      -2.48890099      -0.00981617
