13
Properties=species:S:1:pos:R:3 -1370.0016991029531=T 10.644175=T 12.28628=T -9.6236=T -7.3401=T -9.405=T 0.8819=T -0.5101=T 2.003=T 9.01717=T -1.52819=T 4.1424838474=T 10.2193352738=T 0.27251654=T pbc="F F F"
O        0.96672389      -0.00633268      -0.06125798
C        2.40080954      -0.03060477       0.01289055
C        2.91373924       1.33274354       0.02106512
C        3.36695303       2.46075756       0.01678022
C        3.92805647       3.78510784       0.03714088
C        3.85108546       4.68450914      -1.13828792
O        3.00483067       4.90536927      -0.00175262
H        0.66586017      -0.93169086      -0.06242231
H        2.83416889      -0.56973083      -0.85179407
H        2.74361169      -0.54708762       0.93007026
H        4.76511172       3.92938150       0.73064552
H        3.34304392       4.32462418      -2.03843433
H        4.64383531       5.42592373      -1.28687333
