14
Properties=species:S:1:pos:R:3 -1449.943651181345=T 10.674155=T 11.09347=T -9.4294=T -7.3864=T -10.128=T -0.0018=T -1.7426=T -0.777=T 9.4878=T 1.36933=T 3.4478770796=T 5.3547445638=T 0.596873075=T pbc="F F F"
C        0.91144965      -0.14491437      -0.05145579
C        2.43669462       0.01046526       0.07392417
C        2.86407482       1.44172809       0.07406068
C        3.55082092       2.06834508       1.04973539
C        3.89660892       3.48841340       0.93641646
O        4.51386093       4.12640715       1.77982356
H        0.63254122      -1.20651632      -0.09327421
H        0.53554170       0.33906434      -0.96467469
H        0.39875740       0.31084187       0.80704768
H        2.91501766      -0.49604397      -0.78357798
H        2.80021978      -0.49134830       0.98354842
H        2.57145443       2.03362865      -0.80474584
H        3.87354734       1.55026059       1.95791142
H        3.54516063       3.97737852      -0.01135927
