17
Properties=species:S:1:pos:R:3 -1669.330627355282=T 10.593172=T 11.8616=T -9.295=T -7.1551=T -10.815=T 0.9098=T -0.046=T 2.988=T 10.50796=T -2.63235=T 8.5137218648=T 10.7171142666=T 0.165554614=T pbc="F F F"
C        1.90833100      -0.65528343      -1.22996516
O        1.71568790       0.44959823      -0.34726245
C        2.92827330       1.04604545       0.07932894
C        3.75138820       0.23822702       1.05536677
C        3.61484582       1.96921610      -0.92173761
C        2.80929887       2.53088247       0.23897552
O        3.46361026       3.12740783       1.33650964
H        2.52335682      -0.37256179      -2.10338406
H        0.91059798      -0.95613569      -1.57341374
H        2.38356397      -1.51364754      -0.72410869
H        4.55864651       0.85287431       1.47168438
H        4.19894012      -0.64379030       0.57492891
H        3.11513742      -0.09783292       1.88712830
H        3.18713513       2.05889798      -1.92107753
H        4.70153360       2.04760079      -0.85900335
H        1.82297724       2.94198997      -0.00230974
H        3.77236587       4.00476152       1.05025984
