11
Properties=species:S:1:pos:R:3 -1088.424035026492=T 7.810771=T 8.48748=T -9.6681=T -7.4018=T -10.668=T 0.8098=T -0.367=T 1.419=T 9.98371=T -1.0631=T 5.413662711=T 12.068611261=T 0.460121366=T pbc="F F F"
C        0.96584846      -0.03070293      -0.02229426
N        2.42549972       0.02882021       0.04560349
C        2.91117767       1.40771505       0.01274244
C        4.37390841       1.46270760      -0.00894353
N        5.53758018       1.51450584      -0.05403672
H        0.65225972      -1.08163484      -0.06204902
H        0.52809689       0.50089013      -0.89236207
H        0.53939091       0.40932019       0.89200117
H        2.83272780      -0.48768398      -0.73725289
H        2.56329064       1.92705234       0.92208343
H        2.53955960       2.00272037      -0.85118203
