19
Properties=species:S:1:pos:R:3 -1812.8802562668645=T 12.093814=T 13.34061=T -8.6064=T -6.4405=T -9.872=T 0.8576=T -0.0737=T 3.016=T 9.42988=T -2.67178=T 8.0686493206=T 10.8667405714=T 0.130338644=T pbc="F F F"
C        3.10149290      -1.15740465      -0.55858593
C        2.45553213       0.04752937       0.14402415
N        1.95826332      -0.23611446       1.50737761
C        3.40358577       1.22951537       0.19683292
C        3.55382938       2.15317688      -1.00104835
C        2.87839612       2.64979443       0.24694788
N        3.48001468       3.72133886       1.01423783
H        3.42106909      -0.90124931      -1.58049419
H        2.39835507      -2.00169062      -0.62392018
H        3.98958554      -1.49883173      -0.00281228
H        1.57369759       0.35754502      -0.44689062
H        2.74876721      -0.51382618       2.09888966
H        1.33772215      -1.05052795       1.47958116
H        4.32504033       1.04839055       0.76394122
H        2.94205117       1.96230895      -1.88501881
H        4.55103762       2.53811741      -1.22504562
H        1.78912760       2.73870773       0.19710485
H        4.49763765       3.70272433       0.91171637
H        3.28428467       3.58477600       2.01009233
