13
Properties=species:S:1:pos:R:3 -1354.1058023743517=T 9.7912=T 10.37414=T -9.4134=T -7.2625=T -9.299=T 1.1091=T -0.6014=T -0.212=T 8.73632=T 0.75516=T 4.7496432894=T 6.7001662442=T 0.314363395=T pbc="F F F"
N        1.72214359      -0.35191086      -1.12892194
C        2.73681550      -0.11813094      -0.09100503
C        3.09940906       1.33685966      -0.02242317
C        2.37657766       2.41446222      -0.45624099
O        3.03999720       3.56833139      -0.21086701
N        4.26286627       3.26107723       0.41793001
C        4.27297645       1.94502455       0.51344185
H        1.40485605      -1.32244042      -1.09222290
H        2.13930227      -0.21534599      -2.05378785
H        3.66667570      -0.70973865      -0.21402526
H        2.30153513      -0.43037912       0.87352569
H        1.41105731       2.50379111      -0.94306383
H        5.13728780       1.46640981       0.97067042
