10
Properties=species:S:1:pos:R:3 -1097.053014058834=T 10.202268=T 10.53933=T -8.2584=T -6.3617=T -8.551=T 0.7245=T -0.2371=T 0.517=T 8.06052=T 0.09506=T 3.9701681046=T 10.8813709194=T 0.636482438=T pbc="F F F"
Cl       0.94337090       0.07093421      -0.01059095
C        2.68214468       0.01743388      -0.00162183
C        3.51378171       1.12340424       0.00286568
N        4.80444860       0.63955328       0.00949750
C        4.79853630      -0.73728575       0.00934285
C        3.48028288      -1.15852529       0.00260445
H        3.28846895       2.18291624       0.00175185
H        5.63610341       1.21829027       0.01392784
H        5.72260540      -1.30481482       0.01411416
H        3.12429716      -2.18293626       0.00068845
