19
Properties=species:S:1:pos:R:3 -1820.294771908236=T 11.258709=T 12.63149=T -9.8174=T -7.6194=T -11.566=T 0.9106=T -0.0126=T 2.9=T 10.87397=T -2.61489=T 9.206084486=T 13.5169661186=T 0.087083521=T pbc="F F F"
C        1.05491799       0.06675818      -0.16216642
C        2.56123229      -0.02748555      -0.00783202
O        3.13338617       1.23788106      -0.35257868
C        4.56212051       1.30981842      -0.17339962
C        5.32362547       0.66975933      -1.33111784
C        4.87045842       2.79890530      -0.03209030
O        4.14449479       3.39405208       1.03862703
H        0.58904759      -0.89573274       0.09139645
H        0.78596263       0.31977051      -1.19687352
H        0.63968610       0.83708666       0.50251111
H        2.96238463      -0.82371675      -0.66317289
H        2.83556908      -0.28530920       1.03440292
H        4.82080533       0.80864296       0.78110971
H        5.07339340       1.16952863      -2.27810385
H        5.08465284      -0.39754767      -1.43064419
H        6.40849850       0.75076334      -1.16879788
H        4.64775392       3.30144484      -0.99449261
H        5.93928549       2.93832244       0.18690270
H        3.22293485       3.09557816       0.91143988
