17
Properties=species:S:1:pos:R:3 -1710.264809491319=T 11.916037=T 13.28031=T -9.8059=T -7.7087=T -9.894=T 0.9846=T 0.0055=T 2.221=T 9.4714=T -1.79806=T 4.3649147314=T 10.6172063478=T 0.561878546=T pbc="F F F"
C        2.71710930       0.86093637      -3.25663969
C        2.96309330       1.45450838      -1.88298425
O        4.11935143       0.82081213      -1.32006497
C        4.42618717       1.27242033       0.00477154
C        5.52451133       0.36063270       0.55073478
C        4.83081541       2.68713523       0.02943248
C        5.16824482       3.85334988       0.04759620
H        1.83312952       1.32699570      -3.71390547
H        2.54405345      -0.22203474      -3.19111720
H        3.57950036       1.03530686      -3.91438987
H        2.09093783       1.28621615      -1.21918421
H        3.12769601       2.54571225      -1.94909331
H        3.51927714       1.17065005       0.63816398
H        6.42317445       0.44151109      -0.07410233
H        5.17381703      -0.67940144       0.54101108
H        5.78095825       0.64654394       1.57854240
H        5.46716319       4.88169513       0.06191885
