17
Properties=species:S:1:pos:R:3 -1769.5991548271984=T 13.105332=T 14.34379=T -9.3691=T -7.1833=T -9.212=T 1.0489=T -0.0717=T 1.312=T 8.5951=T -0.6715=T 4.3659934096=T 6.3763148122=T 0.448704259=T pbc="F F F"
C        2.80167704      -1.30163438       1.16005290
C        2.61748012      -0.41256344      -0.04242843
C        1.97235170      -0.83182650      -1.14214365
C        3.18333079       0.98587935       0.04770198
C        4.73372551       1.01599459       0.08350571
C        5.26880780       2.36898814       0.15420482
C        5.68704555       3.50759348       0.20969340
H        3.86710433      -1.47727353       1.37896036
H        2.32373467      -2.27885519       1.01428478
H        2.36972729      -0.83503722       2.06052038
H        1.55781279      -1.83968126      -1.21073851
H        1.83447485      -0.17778352      -2.00560609
H        2.80988891       1.48254436       0.95928161
H        2.84097391       1.58477136      -0.80835847
H        5.12455355       0.51351210      -0.81707085
H        5.10393834       0.43930575       0.94685209
H        6.06482287       4.50819592       0.26008798
