11
Properties=species:S:1:pos:R:3 -1286.9067656029777=T 10.688487=T 11.24884=T -10.5707=T -8.4699=T -9.995=T -1.1674=T -2.7843=T -1.103=T 9.53657=T 1.74918=T 4.929373395=T 10.3770454658=T 0.355568545=T pbc="F F F"
C        0.97534122      -0.19659648       0.00592059
C        2.46104729      -0.07650063       0.00583272
C        3.13840744       1.10374661      -0.00090480
C        2.43993992       2.35443721      -0.00843126
N        1.82892001       3.35066462      -0.01324512
C        4.56961534       1.14594813       0.00111970
N        5.73774145       1.17609865       0.00236957
H        0.65934567      -1.24430540      -0.02939968
H        0.53544470       0.33539346      -0.85180591
H        0.54489662       0.26839906       0.90679145
H        3.06327034      -0.98762523       0.01389274
