16
Properties=species:S:1:pos:R:3 -1526.5386242111213=T 10.9453=T 11.55987=T -9.3263=T -7.3016=T -10.531=T 1.5057=T -0.2684=T 0.459=T 10.05426=T 0.14579=T 5.4583472654=T 6.5053222452=T 0.377442022=T pbc="F F F"
C        2.71916519       0.25786655      -1.54994481
O        2.87838658      -0.17390420      -0.19367382
C        2.95103685       0.86868989       0.73768606
O        4.22334579       1.52602223       0.78703558
N        4.22294514       2.65369423      -0.07772917
C        5.37485880       3.21865047      -0.09348141
C        5.59350770       4.43462521      -0.92998710
H        2.52824657      -0.64582379      -2.14167181
H        3.62399669       0.75974003      -1.92529881
H        1.86367671       0.94904148      -1.64657412
H        2.84192952       0.39978626       1.72428653
H        2.17603512       1.63438207       0.55387650
H        6.20300422       2.81334805       0.50513270
H        4.67192660       4.71622083      -1.45390645
H        6.38781955       4.25664821      -1.67161824
H        5.92379898       5.27980247      -0.30615164
