16
Properties=species:S:1:pos:R:3 -1524.371968784671=T 10.775364=T 11.28708=T -8.1751=T -6.2075=T -9.183=T 0.8306=T -0.1097=T 1.111=T 8.46558=T -0.45558=T 4.584816301=T 5.7750447052=T 0.197690005=T pbc="F F F"
C        0.93645581       0.15957905      -0.60146967
N        2.22406338       0.24222294       0.07403556
C        3.03946537       1.37039350       0.00799058
C        2.31735868       2.69699314      -0.07637948
N        4.31320688       1.18201536       0.07311419
C        5.21057124       2.32371250       0.13948637
H        0.46798398      -0.79920185      -0.34526529
H        1.00464777       0.22613096      -1.70408061
H        0.26229423       0.95294215      -0.25173149
H        2.79488608      -0.60204961       0.01939245
H        1.47242010       2.73283567       0.62565457
H        1.91403035       2.86091809      -1.08763944
H        2.99501162       3.52600606       0.15314595
H        6.24424306       1.95557440       0.19998839
H        5.04013709       2.95789815       1.02968871
H        5.14940436       2.97668951      -0.75055080
