15
Properties=species:S:1:pos:R:3 -1578.2105063562285=T 11.070884=T 11.5711=T -8.4551=T -6.5303=T -8.327=T 0.7708=T -0.1831=T 0.853=T 7.86744=T -0.1771=T 4.7703985458=T 6.5454317162=T 0.376373121=T pbc="F F F"
C        2.25535245      -0.47387476      -1.41935981
C        2.56045644       0.01267073      -0.00320807
N        3.03295092       1.39552872       0.04017586
C        2.26790561       2.53793562      -0.11762574
C        3.15707183       3.59103532      -0.06388826
N        4.44510057       3.13334554       0.11781972
C        4.33369475       1.81568544       0.17238527
H        1.91796772      -1.51949274      -1.39403944
H        3.14922271      -0.41308051      -2.05491039
H        1.46394032       0.12939427      -1.88454102
H        3.34134013      -0.60815599       0.45894249
H        1.66862399      -0.06594308       0.63687556
H        1.19073086       2.49374536      -0.24110745
H        2.93624153       4.65238673      -0.13909122
H        5.14921017       1.11023933       0.31429250
