15
Properties=species:S:1:pos:R:3 -1493.7219847559213=T 10.416228=T 11.73822=T -9.4837=T -7.3203=T -10.596=T 0.7807=T -0.343=T 1.495=T 9.86595=T -1.12395=T 5.414840578=T 11.8649394588=T 0.176106919=T pbc="F F F"
O        3.32610494      -0.50020238      -1.09746761
C        2.11268337      -0.31326828      -0.35071198
C        2.21836954       1.02799789       0.35114537
N        3.31627095       1.00206272       1.31873242
C        3.55686384       2.31838439       1.90575703
C        4.69753210       2.29794693       2.82399901
N        5.61464769       2.30135911       3.54353946
H        3.35632139      -1.41936069      -1.40905600
H        1.98640642      -1.11128461       0.40168487
H        1.23268488      -0.30819043      -1.01890185
H        1.27373230       1.22535907       0.88512888
H        2.33779028       1.82294832      -0.41719939
H        4.15989071       0.68509440       0.83162684
H        2.66616322       2.62182551       2.48221126
H        3.73973837       3.12393806       1.16048168
