17
Properties=species:S:1:pos:R:3 -1726.4729567259892=T 12.000538=T 13.0673=T -8.5004=T -6.4839=T -9.337=T 0.9701=T 0.0212=T 1.31=T 8.86355=T -0.80266=T 6.3807783082=T 0.44257955=T pbc="F F F"
C        1.35996450       2.89983476       0.04404296
C        2.56542166       2.41853302      -0.28258323
O        3.21971793       1.48801816       0.47806124
C        4.58243701       1.24967918       0.11888645
C        5.68789965       2.14993571       0.72742678
C        6.53895051       0.86133477       0.90324814
C        5.22581591       0.03373185       0.80593822
H        0.87285650       3.61111932      -0.61873658
H        0.84724813       2.58867701       0.95404901
H        3.09114754       2.73009187      -1.19339035
H        4.66913265       1.19044769      -0.98130046
H        5.35290664       2.54239650       1.69820383
H        6.08730109       2.97135727       0.11776748
H        7.19689674       0.68545270       0.04078158
H        7.12899816       0.76642539       1.82299129
H        5.23356779      -0.92159739       0.26558593
H        4.77383760      -0.11036781       1.79747771
