16
Properties=species:S:1:pos:R:3 -1593.550651934154=T 11.829855=T 13.42109=T -9.4713=T -7.2014=T -9.441=T 0.7607=T -0.2846=T 2.171=T 9.00237=T -1.75846=T 4.175042571=T 10.7027442892=T 0.430817575=T pbc="F F F"
C        0.96701854      -0.07248262       0.01811124
C        2.49972262      -0.02801784      -0.03952407
O        3.01121887      -0.76063590      -1.17282489
C        2.99805396       1.34880031      -0.00838702
C        3.38515467       2.50251465       0.00033030
C        3.86987799       3.87884125      -0.00829243
N        2.76325298       4.84822398      -0.13715315
H        0.59990231       0.39903420       0.94013782
H        0.63255926      -1.11769170      -0.01165991
H        0.53402987       0.46565331      -0.83733797
H        2.90466673      -0.56957840       0.83236424
H        2.87219117      -0.20072095      -1.95845665
H        4.64531608       3.96107778      -0.79820465
H        4.38284116       4.07865171       0.94801860
H        2.26507839       4.67456383      -1.01408701
H        3.15419540       5.79117639      -0.20676447
