15
Properties=species:S:1:pos:R:3 -1556.5176565209383=T 11.67464=T 12.09809=T -7.8933=T -5.9732=T -7.95=T 0.7692=T -0.1857=T 1.064=T 7.384=T -0.47561=T 4.770671315=T 6.1121254434=T 0.44798594=T pbc="F F F"
C        0.91435917       0.00577300      -0.07378827
C        2.41339523       0.01368129      -0.01400613
C        3.23556926       1.12721244      -0.08848970
N        4.54491599       0.70302551       0.00635977
N        5.63426349       1.59560780      -0.03390164
C        4.58134163      -0.67071969       0.14150821
C        3.27223684      -1.12044995       0.13137996
H        0.51587175       1.02474321      -0.17341278
H        0.47552783      -0.43487854       0.83489944
H        0.54533592      -0.58018506      -0.92990144
H        3.01670785       2.18382635      -0.20130613
H        6.17131099       1.49236020       0.83261137
H        6.24339876       1.32977482      -0.81380531
H        5.52636167      -1.19666375       0.23389353
H        2.96131364      -2.15855761       0.21967911
