14
Properties=species:S:1:pos:R:3 -1430.0572336427044=T 11.331798=T 11.65654=T -8.2595=T -6.2089=T -8.825=T 0.9646=T 0.1224=T 1.149=T 8.40349=T -0.64513=T 5.8272924056=T 0.577806869=T pbc="F F F"
C       -0.01911446       0.09242138       0.03223514
C        1.41832400      -0.31438029       0.13076849
C        2.43761473       0.51882239      -0.10360915
O        3.74851084       0.09966446      -0.00438938
C        4.72874474       1.02571575      -0.25789685
C        6.02682127       0.71138692      -0.21354457
H       -0.55652176      -0.51360133      -0.71450774
H       -0.12321103       1.14840869      -0.25465938
H       -0.54284389      -0.04923838       0.99101357
H        1.64908509      -1.34672329       0.40734824
H        2.30279664       1.56843190      -0.38621317
H        4.36699566       2.03155046      -0.49447061
H        6.36409508      -0.29659285       0.02386881
H        6.76643308       1.48101418      -0.41883340
