18
Properties=species:S:1:pos:R:3 -1811.3934386131768=T 12.11601=T 12.91931=T -8.6655=T -6.5446=T -8.946=T 0.9295=T 0.0248=T 1.45=T 8.4609=T -0.81546=T 6.1126585832=T 0.299806744=T pbc="F F F"
C        2.98612344      -1.10258119      -0.51980821
N        2.44382329       0.09584052       0.11998150
C        3.29485765       1.27492051      -0.05306566
C        3.27571325       1.83028620      -1.50508250
C        3.31055113       3.32497061      -1.30604044
C        3.07356174       3.66700392      -0.03181549
C        2.83737903       2.45784077       0.83769029
H        2.35979753      -1.96910368      -0.26691551
H        4.03527161      -1.33151043      -0.23359798
H        2.95892608      -0.98478872      -1.61347827
H        2.34003743      -0.08527120       1.12150191
H        4.35574838       1.04769815       0.19881438
H        2.34330782       1.52334652      -2.01355000
H        4.11482480       1.45944987      -2.11452734
H        3.47230006       4.03008257      -2.12327569
H        3.01214777       4.69011917       0.34274274
H        3.38253807       2.49787246       1.79426731
H        1.76286090       2.35576395       1.07914895
