12
Properties=species:S:1:pos:R:3 -1141.7918762181948=T 7.572067=T 8.26269=T -9.6354=T -7.3525=T -11.077=T 1.045=T -0.0127=T 3.1=T 10.4245=T -2.8095=T 8.9035958418=T 13.7431165826=T 0.171648424=T pbc="F F F"
O        3.13975112      -1.03189261      -0.57520643
C        2.36188105       0.01987488       0.01681207
C        3.20996462       1.26410448       0.05502121
C        3.24329816       2.20973220      -1.09099678
N        2.45206857       2.53251331       0.11832558
H        2.62419919      -1.85303262      -0.51316250
H        2.05405413      -0.24755085       1.04545399
H        1.44781135       0.23317587      -0.56676028
H        4.12566851       1.17804143       0.64913217
H        2.64570259       1.99255936      -1.97966966
H        4.17199326       2.75412012      -1.27777187
H        2.96307747       3.20738442       0.69506252
