21
Properties=species:S:1:pos:R:3 -2008.6142281093385=T 12.637982=T 14.68112=T -9.6581=T -7.3912=T -11.613=T 0.9687=T 0.0548=T 3.048=T 10.89965=T -2.82975=T 9.3916047378=T 11.1367076878=T 0.231361316=T pbc="F F F"
C        0.20452351       1.71100255       0.83504136
C        1.56647992       1.01457894       0.84027221
C        2.72321657       1.95048703       0.47636280
C        4.08780131       1.25664475       0.47929903
C        5.22389917       2.19503379       0.10197808
O        6.45407120       1.47500564       0.13214059
C        7.55600421       2.29605463      -0.21981991
H       -0.60521838       1.01513737       1.09752855
H       -0.02405975       2.13002715      -0.15711562
H        0.17906127       2.54081916       1.55816971
H        1.55148788       0.16719108       0.13335816
H        1.75467604       0.57683943       1.83575326
H        2.73761992       2.79889796       1.18418408
H        2.53266047       2.38808799      -0.52028695
H        4.08221150       0.40942415      -0.22637231
H        4.29539515       0.83532891       1.47687481
H        5.27002690       3.05159238       0.80728104
H        5.05761783       2.61596325      -0.91211828
H        8.45578813       1.66903635      -0.17407522
H        7.67260473       3.14543945       0.48091053
H        7.45136240       2.70191806      -1.24473592
