12
Properties=species:S:1:pos:R:3 -1308.0770196064113=T 10.527284=T 11.57784=T -10.1096=T -7.7221=T -9.561=T 0.9476=T -0.0755=T 1.83=T 9.26017=T -1.55948=T 4.327669337=T 10.7316206286=T 1.020958494=T pbc="F F F"
C        0.95969447      -0.03386326       0.02215192
C        2.50858274      -0.00427700      -0.02022079
C        3.02728090      -0.76260060      -1.16582643
C        3.42971685      -1.41421291      -2.10594311
C        3.01900224       1.37280593      -0.01190742
C        3.41361742       2.51910860       0.01387163
H        0.60162191       0.50187332       0.91029676
H        0.60905203      -1.07295550       0.05940257
H        0.54779383       0.44780294      -0.87316751
H        2.88139848      -0.49839300       0.89694804
H        3.79084804      -1.97893817      -2.94096219
H        3.76979109       3.52883962       0.02780653
