20
Properties=species:S:1:pos:R:3 -1957.7520852371188=T 12.117774=T 13.16917=T -8.5016=T -6.4264=T -9.98=T 0.9085=T -0.027=T 3.094=T 9.2427=T -2.80856=T 8.1190744268=T 10.5710339614=T 0.139899587=T pbc="F F F"
C        0.96316266       0.07248442       0.12726422
C        2.48994740       0.00974263      -0.00857297
C        2.98990891      -1.35226795      -0.53473368
C        2.70192704      -1.54031809      -2.03129322
C        3.22598526      -0.34682028      -2.83317646
N        2.63136792       0.88768391      -2.31134055
C        3.03168518       1.12608412      -0.92041494
H        0.65192396       1.02367199       0.58541998
H        0.59050694      -0.74428534       0.76376875
H        0.47074925       0.00233735      -0.85221408
H        2.92843025       0.16623835       0.99272246
H        2.54268934      -2.17186819       0.05080544
H        4.08155066      -1.41091086      -0.37635762
H        3.17145212      -2.46810983      -2.39430275
H        1.61801433      -1.63583804      -2.20454947
H        4.33981629      -0.33699750      -2.77209711
H        2.95479346      -0.44756320      -3.89523569
H        2.90712062       1.68105562      -2.89130295
H        4.13953321       1.16685163      -0.80412072
H        2.62998519       2.10114925      -0.60210865
