12
Properties=species:S:1:pos:R:3 -1404.0518359690298=T 10.317761=T 9.92242=T -9.0787=T -7.293=T -9.109=T 1.1971=T -0.3181=T 0.682=T 8.5983=T -0.14623=T 4.6946554984=T 6.1989404406=T 0.736205192=T pbc="F F F"
C       -0.76233660       1.17250057      -0.00160413
C        0.63434847       1.24855589      -0.00064656
C        1.39860037       0.07698366       0.00104262
C        0.76617605      -1.17068029       0.00160079
C       -0.63053550      -1.24674074       0.00055141
C       -1.39476664      -0.07518872      -0.00113409
H       -1.35885105       2.08668121      -0.00294479
H        1.12794675       2.22216640      -0.00106538
H        2.48856639       0.13639711       0.00186967
H        1.36266420      -2.08487934       0.00289794
H       -1.12408593      -2.22037350       0.00099222
H       -2.48473651      -0.13456224      -0.00193971
