15
Properties=species:S:1:pos:R:3 -1491.6122115646876=T 10.517995=T 11.04598=T -8.3099=T -6.3505=T -9.015=T 1.329=T -0.2701=T 0.663=T 8.54315=T -0.01392=T 5.1314953722=T 5.2044859304=T 0.135224617=T pbc="F F F"
O        2.08373765      -0.55770151       1.16274522
C        2.31524677       0.00388773      -0.14725217
C        2.81583331       1.40912755      -0.07991301
N        4.04714727       1.69933190      -0.36490699
N        4.28190228       3.03406777      -0.05088594
C        2.97991043       3.74173460       0.04157965
C        2.04776299       2.59827566       0.46888497
H        2.94384726      -0.55916893       1.62075026
H        1.33515344      -0.03976519      -0.64610749
H        3.03053195      -0.60313694      -0.72677537
H        4.96160728       3.43192485      -0.69890342
H        2.67512983       4.14624299      -0.94197034
H        3.03548883       4.56537955       0.76471953
H        1.02958718       2.68509436       0.06699552
H        1.96596353       2.51828563       1.56659957
