18
Properties=species:S:1:pos:R:3 -1698.2823425666184=T 10.637288=T 11.74227=T -9.3686=T -7.1442=T -10.515=T 0.8428=T -0.1595=T 2.749=T 9.96526=T -2.4719=T 8.5469253156=T 12.527917398=T 0.087441478=T pbc="F F F"
N        1.40039672      -0.52148851       1.49179836
C        2.68760231      -0.27048457       0.79798030
C        2.91668245       1.23606918       0.59696237
C        2.98519092       1.98569017       1.94017495
O        1.76245116       1.95933525       2.66440881
C        4.18658449       1.49168779      -0.21202210
O        4.04873898       0.88355143      -1.50630298
H        1.34558635      -1.49900752       1.78502873
H        0.62447264      -0.37339578       0.84014877
H        2.76576289      -0.78772824      -0.17308676
H        3.49080028      -0.66276831       1.44547068
H        2.06758002       1.64939019       0.02163473
H        3.23102256       3.04641930       1.76284129
H        3.81545853       1.55670142       2.54312767
H        1.43129214       1.03039605       2.56474040
H        5.06252583       1.07478743       0.32318529
H        4.33865640       2.58277942      -0.30879429
H        4.86619533       1.05221532      -2.00317621
