13
Properties=species:S:1:pos:R:3 -1502.5041514612014=T 11.872909=T 12.38192=T -8.6447=T -6.5846=T -8.33=T 0.5598=T -0.9593=T 0.465=T 7.88144=T 0.10275=T 4.3166221844=T 7.282875647=T 0.667532553=T pbc="F F F"
C        0.91969538       0.00033666       0.10801685
C        2.12919729       0.00012133       0.00923245
C        3.58459494      -0.00014946      -0.10254906
C        4.17419300       1.18689391      -0.84089090
C        5.01113061       0.73239394      -1.80089875
C        5.01100260      -0.73453309      -1.80022380
C        4.17378436      -1.18797551      -0.83994159
H       -0.14773872       0.00052831       0.19096798
H        4.01019551       0.00020110       0.92405703
H        3.94030073       2.21812826      -0.58788904
H        5.60254775       1.34969606      -2.47663828
H        5.60215690      -1.35257498      -2.47550397
H        3.93956965      -2.21892653      -0.58608892
