18
Properties=species:S:1:pos:R:3 -1793.7749338253723=T 11.788838=T 13.3288=T -9.1348=T -6.9062=T -10.28=T 0.956=T 0.0459=T 3.157=T 9.78491=T -2.73681=T 8.4910200282=T 10.8758163466=T 0.293509635=T pbc="F F F"
N        1.16639304      -0.14855089       0.07164970
C        2.59980216      -0.11532068      -0.13473771
C        3.10713586      -0.45180241      -1.51731523
C        3.15457519       0.97790577      -1.02059270
C        4.43261395       1.68852141      -0.68357008
C        5.76829631       0.98488536      -0.60949547
C        5.48397078       1.94353732      -1.74235985
H        0.90809813       0.44839193       0.86194838
H        0.86444585      -1.09742611       0.30850719
H        3.26122802      -0.41858717       0.68871606
H        2.35334349      -0.68389187      -2.27007262
H        4.03425427      -1.02074549      -1.59624151
H        2.38082266       1.62002189      -1.45215622
H        4.30320025       2.49890149       0.04102172
H        5.81368822      -0.07835697      -0.84914865
H        6.46342337       1.29731823       0.17038018
H        5.99373702       2.90757899      -1.74948019
H        5.30612145       1.51157919      -2.72846300
