14
Properties=species:S:1:pos:R:3 -1383.7159261238023=T 9.54119=T 9.81752=T -8.3557=T -6.2748=T -9.06=T 1.1053=T -0.1753=T 0.755=T 8.6197=T -0.16046=T 5.1266599182=T 5.3021249054=T 0.137939215=T pbc="F F F"
C        0.95616677       0.03034665      -0.06765026
C        2.49285953      -0.03898263      -0.00901674
C        3.03183629      -1.30914479       0.68492861
N        3.18141754      -0.85018562       2.08494255
N        3.42840897       0.52337246       2.08177595
C        3.05941119       1.00141112       0.93969015
H        0.55338233      -0.76154078      -0.71620697
H        0.62142478       0.99758675      -0.46904873
H        0.52408108      -0.08968325       0.93609879
H        2.90135593       0.06474087      -1.02581427
H        4.00597961      -1.60367563       0.25229893
H        2.33963670      -2.16074936       0.62340239
H        3.89029121      -1.33011076       2.63829098
H        3.07871807       2.07743497       0.76686864
