21
Properties=species:S:1:pos:R:3 -2070.777934443187=T 13.860223=T 15.72904=T -9.064=T -6.8665=T -8.988=T 1.0007=T 0.1275=T 1.472=T 8.46401=T -0.83584=T 6.2946080382=T 0.419886041=T pbc="F F F"
C        0.66416541       0.84852855      -0.00334069
C        2.17112160       0.60593505      -0.10692494
C        2.98911388       1.90041884      -0.11778661
C        4.50562550       1.66351258      -0.22761453
C        5.30231178       2.93551487      -0.23723966
C        6.21801683       3.28301295       0.67794405
C        7.00133823       4.56059068       0.67974365
H        0.10252970      -0.09668482       0.01014352
H        0.29735205       1.44251820      -0.85472874
H        0.41241096       1.39938050       0.91606928
H        2.39112359       0.02805454      -1.02153168
H        2.50209735      -0.02398945       0.73713894
H        2.78168176       2.47643626       0.80067441
H        2.65767679       2.53628523      -0.95832146
H        4.70392214       1.09682929      -1.15645317
H        4.84159763       1.02339438       0.60587196
H        5.09144015       3.63359761      -1.05897948
H        6.42382494       2.58406139       1.49905757
H        6.72360352       5.20575137      -0.16570254
H        8.08468871       4.36644895       0.62021651
H        6.83789748       5.12751300       1.61067361
