13
Properties=species:S:1:pos:R:3 -1432.0458231393866=T 9.611539=T 10.20565=T -9.6772=T -7.5591=T -9.846=T 0.6864=T -1.1773=T 0.026=T 9.87602=T 0.71228=T 3.7134798888=T 6.1598476548=T 0.26837092=T pbc="F F F"
O        0.96869547       0.02686154       0.11432423
C        2.38442392      -0.05174530       0.06999154
C        2.93926213      -1.25197596      -0.64929591
C        3.95844978      -0.92036351      -1.45993286
C        4.22317062       0.56464535      -1.48850192
C        3.01502082       1.10725279      -0.72677697
O        2.52361812       2.21706635      -0.79572477
H        0.75384686       0.97680402       0.01195043
H        2.80016481      -0.00914457       1.10315863
H        2.56590340      -2.26044691      -0.47449807
H        4.54491656      -1.63101762      -2.04307756
H        5.15094595       0.84770403      -0.95935965
H        4.28842156       1.00546980      -2.49493711
