13
Properties=species:S:1:pos:R:3 -1379.0591898547311=T 10.767853=T 10.79043=T -8.5483=T -6.5787=T -8.966=T 0.6535=T -0.3073=T 0.621=T 8.31824=T -0.16546=T 5.2476702542=T 5.4946131704=T 0.475941573=T pbc="F F F"
C        1.05807179      -0.07084924       0.17799331
C        2.38522559      -0.02705811      -0.01642581
C        3.29464788       1.18500183       0.02075994
O        4.61919262       0.68973739      -0.26780875
C        4.58019059      -0.66815335      -0.45654385
N        5.64360656      -1.31521552      -0.72307536
N        3.25228561      -1.07505446      -0.29755031
H        0.49799125      -1.00338807       0.13001069
H        0.50739930       0.84254123       0.39207413
H        3.30649706       1.66540999       1.01079918
H        3.02437546       1.93203716      -0.74050612
H        5.45589903      -2.31507603      -0.83583770
H        2.96545726      -2.04108282      -0.40312934
