23
Properties=species:S:1:pos:R:3 -2212.1790412239966=T 13.453524=T 15.06399=T -10.7972=T -8.5798=T -12.267=T 0.8732=T -0.0214=T 2.846=T 11.99486=T -2.50879=T 10.4200190134=T 10.4278549286=T 0.196198757=T pbc="F F F"
C        1.59862486       0.63687121       1.51343028
C        2.96574941       1.32413949       1.45197304
C        3.72852926       0.98823337       0.16533917
C        5.13297048       1.61988164      -0.01858190
C        6.09061638       1.16473022       1.09846934
C        5.69055598       1.14514928      -1.37288932
C        5.04691437       3.15756294      -0.02969856
H        1.06255239       0.88834529       2.44024743
H        1.70030697      -0.45900911       1.47409618
H        0.96139299       0.93877099       0.66747627
H        3.55885946       1.02441350       2.33190403
H        2.82388175       2.41466533       1.53260170
H        3.10601401       1.28296583      -0.69988578
H        3.83717745      -0.11021192       0.09698322
H        5.76954038       1.52493782       2.08679565
H        7.10616809       1.55105820       0.92029550
H        6.15355704       0.06577900       1.14200827
H        5.03696406       1.45732598      -2.20244632
H        5.77366542       0.04747246      -1.40502006
H        6.69202347       1.56431222      -1.55696162
H        4.34785046       3.50904204      -0.80516430
H        6.03252504       3.59979530      -0.24262360
H        4.70836030       3.55684891       0.93756139
