15
Properties=species:S:1:pos:R:3 -1448.098675287117=T 9.709832=T 10.43968=T -8.9123=T -6.8067=T -10.261=T 1.0438=T -1.0001=T 0.019=T 10.07573=T 0.59899=T 3.6783670536=T 12.4383127158=T 0.128391669=T pbc="F F F"
C        1.12168529      -0.33842183       0.28420263
N        2.31608040      -0.27012485      -0.55303500
C        2.30902685      -1.32274671      -1.56798853
C        2.47845953       1.04189497      -1.16353542
C        3.89084787       1.25269089      -1.68201153
O        4.18587251       2.01248966      -2.58393216
H        1.17520105       0.42653058       1.07176763
H        1.07139241      -1.32389393       0.76891033
H        0.17854680      -0.18761281      -0.28597228
H        2.25805736      -2.30549878      -1.07897115
H        3.23608077      -1.28653216      -2.15832094
H        1.45122788      -1.23581954      -2.27128900
H        2.33181836       1.81348737      -0.38579689
H        1.75451625       1.26488419      -1.97814796
H        4.66763666       0.66049294      -1.13017971
