15
Properties=species:S:1:pos:R:3 -1596.9423411810476=T 10.594887=T 11.2754=T -8.6515=T -6.5073=T -8.854=T 1.256=T -0.0793=T 1.234=T 8.40083=T -0.62425=T 5.8723365194=T 0.274430634=T pbc="F F F"
C        0.82240464      -1.24278901       0.92147262
C        1.15589551      -0.35749165      -0.24256008
O        1.02904149       1.04306952      -0.23403712
C       -0.12575067       1.55677079       0.45549264
C       -1.38859625       0.81205460       0.12980299
C       -1.36039211      -0.47873199      -0.24244172
C       -0.08571434      -1.22508672      -0.32214429
H        1.44718613      -2.12123331       1.08754735
H        0.40201928      -0.80194811       1.82570933
H        2.00952173      -0.62732033      -0.86536365
H        0.06563877       1.56742092       1.54844167
H       -0.19890057       2.60712581       0.13622485
H       -2.33023289       1.36144248       0.18833299
H       -2.28282321      -0.99836062      -0.51201939
H       -0.06376752      -2.10395237      -0.96850819
