17
Properties=species:S:1:pos:R:3 -1603.3869318386326=T 11.453053=T 12.30132=T -8.9472=T -6.7765=T -10.313=T 1.2632=T -0.069=T 0.666=T 9.71745=T 0.01721=T 5.5686824068=T 6.473619025=T 0.179919701=T pbc="F F F"
C        0.97993414       0.09389261      -0.03095330
N        2.42376694      -0.04142694       0.15702443
C        3.15441241       1.16459849      -0.24411409
C        4.62959105       1.02567545       0.03603062
C        5.10494843       0.81212029       1.44200202
N        5.39239693       1.11660358      -0.99981178
O        6.76614329       1.00870478      -0.63993554
H        0.48741968      -0.85560170       0.21945523
H        0.67935261       0.38295399      -1.05976984
H        0.59314265       0.86141833       0.65705340
H        2.76512606      -0.82576579      -0.40473649
H        2.76095807       2.00175596       0.36195205
H        3.01900245       1.44016707      -1.30931282
H        4.26285427       0.54427515       2.08971955
H        5.58638830       1.72647825       1.82314741
H        5.86515297       0.02020563       1.47979747
H        7.19574974       1.08330486      -1.50988833
