12
Properties=species:S:1:pos:R:3 -1193.0727952080742=T 8.906787=T 9.22413=T -9.1694=T -7.0458=T -9.42=T 1.4697=T -0.0178=T 1.215=T 8.93875=T -0.65822=T 6.520671712=T 0.506639357=T pbc="F F F"
C        2.09053736      -1.05490975      -0.84795963
C        2.05550714       0.26834875      -0.64367682
C        3.24950832       1.11668349      -0.45948174
C        3.32903463       2.49323326      -1.04468298
N        3.07490510       2.32594768       0.39501310
H        1.17727532      -1.63235632      -0.99215296
H        3.03505892      -1.60392315      -0.87746174
H        1.09714534       0.79699736      -0.60715793
H        4.19995271       0.57748078      -0.38364460
H        2.48033390       2.87834674      -1.61565963
H        4.30961797       2.83796871      -1.38376340
H        3.93836329       2.48969245       0.92203833
