13
Properties=species:S:1:pos:R:3 -1395.7096754926263=T 13.473419=T 13.48279=T -8.6971=T -6.8739=T -8.859=T -0.0288=T -1.6596=T -0.332=T 8.25848=T 0.76736=T 3.5280464272=T 6.1115675064=T 0.353030375=T pbc="F F F"
N        1.04197769       0.01587172       0.00000000
C        2.42269278      -0.08707325       0.00000000
N        3.13527114      -1.16859529       0.00000000
C        3.09698896       1.18502061       0.00000000
C        3.63943367       2.27900173       0.00000000
C        4.35087472       3.50182226       0.00000000
C        3.78193465       4.72393413       0.00000000
H        0.59159103       0.92242849       0.00000000
H        0.46520014      -0.81619921       0.00000000
H        2.53014321      -2.00266481       0.00000000
H        5.44267397       3.41621688       0.00000000
H        2.69850979       4.84826170       0.00000000
H        4.39715826       5.62320505       0.00000000
