14
Properties=species:S:1:pos:R:3 -1480.5187111675816=T 9.795508=T 10.62195=T -9.0251=T -6.9409=T -10.408=T 1.2665=T -0.5668=T 0.386=T 9.58694=T 0.36523=T 3.82124852=T 12.091052727=T 0.113539468=T pbc="F F F"
O        1.06591985       0.00839763      -0.05469782
C        2.27715233       0.00209509      -0.02129901
C        3.25637095      -1.18850917       0.04048680
C        4.54869535      -0.35800454      -0.02834633
C        4.25769876       0.67028015      -1.15399219
C        3.25806074       1.18028764      -0.07365038
N        4.22542159       0.70870120       1.01316898
H        3.10730060      -1.87613677      -0.80343996
H        3.14974023      -1.73808653       0.98514190
H        5.50560448      -0.88482036       0.06299387
H        3.87510345       0.31914235      -2.12685929
H        5.08385142       1.38095794      -1.29724529
H        2.84253528       2.19190872      -0.02853838
H        5.00675498       1.37975667       1.00137711
