12
Properties=species:S:1:pos:R:3 -1174.7507203350435=T 10.786149=T 11.96143=T -10.3459=T -8.1544=T -10.436=T 0.7141=T -0.3973=T -0.16=T 10.20288=T 0.58529=T 4.3718455488=T 7.5110222856=T 0.085114613=T pbc="F F F"
N        1.02444664       0.33449879       0.00599696
S        2.68322827      -0.03354339       0.00804410
O        3.01049463      -0.64018187       1.29949571
O        3.01076583      -0.65327096      -1.27711586
C        3.36637681       1.67511337      -0.00056463
C        4.81085203       1.66585006      -0.00034797
C        6.02295165       1.65719615      -0.00015284
H        0.60466852      -0.07275325      -0.83341419
H        0.60449311      -0.06421061       0.84941278
H        2.95056437       2.16009942       0.89400011
H        2.95074879       2.15098664      -0.90009569
H        7.09377935       1.64456565       0.00025152
