18
Properties=species:S:1:pos:R:3 -1739.9891298622047=T 11.331656=T 12.69125=T -8.6299=T -6.4783=T -9.91=T 0.9439=T 0.0188=T 3.178=T 9.24919=T -2.86418=T 7.989471861=T 10.8750476334=T 0.23524572=T pbc="F F F"
C        2.74719704      -1.03231128      -0.72863221
N        2.27635686       0.20198893      -0.09733106
C        3.31570661       1.18746614       0.05294355
C        3.50740729       2.25121098      -1.03483363
C        2.65504358       2.28035631      -2.28265357
C        2.91737710       2.60919843       0.31063709
O        3.67658453       3.31170498       1.27413384
H        1.92984001      -1.76644359      -0.75360497
H        3.61868224      -1.49584567      -0.22139004
H        3.04055241      -0.82082701      -1.76755385
H        1.87560024      -0.00841808       0.81963479
H        4.24930769       0.88101533       0.55036785
H        4.55111295       2.55424772      -1.15766916
H        1.66538157       1.84716710      -2.08478589
H        3.11744476       1.69917121      -3.09530063
H        2.51760600       3.31001318      -2.64726885
H        1.83771833       2.80370176       0.33093335
H        3.73623078       4.23844356       0.98128338
