15
Properties=species:S:1:pos:R:3 -1514.4522519538934=T 10.361481=T 10.75838=T -8.3793=T -6.1977=T -8.733=T 0.9805=T 0.0008=T 1.457=T 8.38401=T -0.8323=T 5.9055399702=T 12.4356842126=T 0.265041682=T pbc="F F F"
C        0.97944245       0.07273507      -0.27880003
C        2.44906603      -0.00815230       0.14949532
N        2.71529596      -1.21659351       0.96827011
C        3.63227935      -0.87007887       2.07255465
C        3.54102611       0.62927835       2.13210925
C        2.89126383       1.10627464       1.06522023
H        0.70603788      -0.80223566      -0.88596117
H        0.79431140       0.97479987      -0.88162685
H        0.32901255       0.09211573       0.60674139
H        3.07365751       0.01804679      -0.77293151
H        3.07516666      -1.98270227       0.40124968
H        4.68276714      -1.18612353       1.89583194
H        3.31459545      -1.34705129       3.01773214
H        3.97027978       1.21851469       2.94248141
H        2.69725791       2.15661228       0.84681343
