20
Properties=species:S:1:pos:R:3 -1935.5553488767785=T 12.590367=T 13.96785=T -8.577=T -6.4733=T -9.839=T 0.9048=T 0.0103=T 3.098=T 9.14818=T -2.74403=T 7.9740604012=T 10.751693962=T 0.279449905=T pbc="F F F"
C        2.58631364      -0.88514924      -0.43152508
N        2.22399765       0.36158828       0.24483141
C        3.30278238       1.31712738       0.27202141
C        3.45799376       2.23330019      -0.92714875
C        3.00301449       2.80111057       0.40322820
C        1.56245056       3.25596982       0.53204291
C        3.99999927       3.63412491       1.18682111
H        1.74404308      -1.58937846      -0.38000334
H        3.48549984      -1.38417712      -0.01338345
H        2.78649829      -0.67496363      -1.49275441
H        1.92402747       0.15629732       1.20102906
H        4.24725757       0.98794846       0.73771893
H        2.70059234       2.13041460      -1.70628054
H        4.46429685       2.46398890      -1.28068965
H        0.88452867       2.57651441       0.00079386
H        1.44066658       4.27013064       0.11991352
H        1.25283128       3.28850550       1.58966804
H        5.02454733       3.25052879       1.07482490
H        3.75537839       3.63595489       2.26146216
H        3.99455055       4.68017378       0.84073972
