18
Properties=species:S:1:pos:R:3 -1738.0939776630146=T 12.146509=T 13.27955=T -9.2886=T -6.9503=T -9.709=T 1.5526=T -0.0997=T 1.306=T 9.18655=T -0.76027=T 6.776640809=T 0.455039826=T pbc="F F F"
N        1.93759164      -1.28202386      -0.67525214
C        1.61417842       0.01949777      -0.07643520
C        2.84634861       0.90353611      -0.04206749
O        3.79488512       0.31721913       0.85291989
C        5.02198788       1.04746061       0.88792400
C        6.01070335       0.31303628       1.73784704
C        6.69362581       0.86659820       2.74440281
H        1.11298225      -1.88564348      -0.66410333
H        2.64129187      -1.74227617      -0.09169855
H        1.20171319      -0.03783712       0.95118392
H        0.85894572       0.51796397      -0.70514500
H        2.57640633       1.92197088       0.30215250
H        3.28323135       0.97866562      -1.05749771
H        4.85588790       2.07127408       1.27989656
H        5.41772411       1.14785028      -0.14537114
H        6.17271598      -0.73658822       1.47183836
H        6.53867865       1.91019822       3.02986203
H        7.43432183       0.30136771       3.31149347
