12
Properties=species:S:1:pos:R:3 -1279.8328348607045=T 9.6135=T 9.6412=T -7.9083=T -5.8825=T -7.802=T 0.8576=T -0.0851=T 1.086=T 7.35625=T -0.50119=T 4.6857285064=T 6.2894502206=T 0.408207151=T pbc="F F F"
N        0.94045274      -0.22611112      -0.07831572
C        2.34341430      -0.01507586      -0.01794965
C        3.15403554       1.10379661       0.12273381
C        4.50836687       0.66148439       0.09119948
C        4.49621326      -0.71481320      -0.06359599
N        3.17887574      -1.10980333      -0.13141794
H        0.49638481       0.42448124      -0.72777651
H        0.49803306      -0.10033992       0.83514379
H        2.80235701       2.12483179       0.24227487
H        5.39755072       1.27912039       0.17691663
H        5.30569089      -1.43376245      -0.12960679
H        2.83211508      -2.05212853      -0.27687598
