16
Properties=species:S:1:pos:R:3 -1643.8421448880204=T 12.990825=T 14.37912=T -9.0812=T -6.9639=T -8.993=T 1.181=T -0.1898=T 1.19=T 8.59166=T -0.62338=T 4.1153185148=T 6.5205601246=T 0.409925353=T pbc="F F F"
C        0.94056525       0.00324999       0.01587930
C        2.39589659       0.00771414       0.01127777
C        3.61375664       0.01292088       0.02118330
C        5.08574741       0.00629408      -0.02389771
N        5.64897493      -0.80019858      -1.13676022
C        5.60935709       1.42457763      -0.11106356
C        6.34567888       2.01666033       0.83204886
H        0.54093220       1.02847428       0.02937047
H        0.54799638      -0.52006633       0.90060145
H        0.53884869      -0.50036236      -0.87636974
H        5.46530771      -0.43672375       0.91334886
H        5.27770518      -0.43150541      -2.01902554
H        5.27240843      -1.75053241      -1.06423983
H        5.33067889       1.97096255      -1.01906105
H        6.62654998       1.49240189       1.74881793
H        6.69235575       3.04490308       0.72153973
