11
Properties=species:S:1:pos:R:3 -1167.8490515086182=T 9.253174=T 9.79238=T -9.8927=T -7.5942=T -9.471=T 1.5112=T -0.1563=T 1.128=T 9.07458=T -0.59234=T 4.3604264382=T 10.7531693954=T 0.75785463=T pbc="F F F"
C        1.68436468      -0.61106530       1.04106340
C        2.48178462      -0.13287713       0.08250884
C        3.18664463       1.20335235       0.15183357
C        4.63050074       1.09594871      -0.04635276
C        5.82673965       0.98710332      -0.22052957
H        1.18701206      -1.57599608       0.93646070
H        1.50184378      -0.05528268       1.96436788
H        2.65845504      -0.71451312      -0.82731640
H        2.97878717       1.68508752       1.12113034
H        2.77580611       1.87321198      -0.62536498
H        6.88352151       0.89650044      -0.36715103
