12
Properties=species:S:1:pos:R:3 -1379.3397200297954=T 12.13136=T 12.89485=T -9.5719=T -7.4747=T -8.98=T 0.0706=T -1.5596=T 0.032=T 8.57364=T 0.50893=T 4.0722953728=T 5.8049873242=T 0.231828182=T pbc="F F F"
C        0.93539681      -0.05942000       0.04496466
C        2.14937397       0.02076147       0.01590735
C        3.56481524       0.06067611      -0.00550894
C        4.28995803       1.16425224      -0.27335116
C        5.79724489       1.17923100      -0.25751213
C        6.36864099       1.65913286      -1.51786807
N        6.81717694       2.04629315      -2.52226572
H       -0.13380405      -0.11776442       0.06337472
H        4.07917498      -0.88180296       0.21538156
H        3.78809175       2.10599018      -0.50619513
H        6.19589764       0.17446726      -0.04965827
H        6.16381282       1.84332310       0.54516112
