11
Properties=species:S:1:pos:R:3 -1258.7042667335772=T 9.598986=T 9.354=T -9.3959=T -7.4598=T -9.36=T 0.0858=T -1.505=T -0.291=T 9.67083=T 0.91858=T 4.055768039=T 6.7362585688=T 0.350668103=T pbc="F F F"
O        0.96456324       0.04731909      -0.00238087
C        2.32946048       0.00341565      -0.00001585
C        3.04499167       1.20928247       0.00291254
N        4.38240459       1.23430989       0.00534126
C        5.00384203       0.04374061       0.00484135
N        4.42270114      -1.16494528       0.00209788
C        3.08314658      -1.17570262      -0.00031229
H        0.61346141      -0.86237762      -0.00421635
H        2.51170800       2.16465604       0.00327399
H        6.09675869       0.06157235       0.00680098
H        2.58998216      -2.15646057      -0.00256265
