17
Properties=species:S:1:pos:R:3 -1716.5805185933255=T 10.932571=T 12.15342=T -9.3805=T -7.2813=T -10.613=T 0.9349=T 0.0295=T 2.622=T 10.25291=T -2.32138=T 8.3175884114=T 10.9822955234=T 0.23529002=T pbc="F F F"
C       -1.78754550       0.67058647       0.35546396
O       -1.77141693      -0.74603041      -0.07206817
C       -0.32188792      -0.71682780       0.21927492
C        0.90815540      -1.23400833      -0.49872997
C        1.91879137      -0.09786798      -0.03632465
C        1.08484470       1.14775903       0.50310037
C       -0.28919652       0.76405689      -0.02835393
H       -2.51697712       1.25633028      -0.21988729
H       -1.98723847       0.74560159       1.43973450
H       -0.21357667      -0.93060331       1.30469940
H        1.25019236      -2.23340252      -0.19719934
H        0.77052987      -1.22053774      -1.58957889
H        2.58636986      -0.47695179       0.74927038
H        2.55536659       0.20183411      -0.87954002
H        1.10988445       1.18215650       1.60234815
H        1.48423703       2.09741693       0.12240166
H       -0.28477250       0.89640807      -1.12447109
