16
Properties=species:S:1:pos:R:3 -1681.9791620127978=T 12.58414=T 13.71204=T -9.87=T -7.853=T -9.675=T 0.2429=T -1.4748=T -0.128=T 9.17241=T 0.64863=T 5.0185441262=T 6.4718584238=T 0.304622995=T pbc="F F F"
C        0.98582302      -0.24618307       0.17185321
C        2.50721915      -0.09952772       0.12860466
C        2.95158721       1.34778498      -0.15959799
C        4.43571608       1.50934293      -0.15633892
C        5.16063365       1.94006366      -1.20806782
C        6.57714145       2.07190388      -1.17735910
N        7.74128565       2.19307797      -1.18357066
H        0.69347314      -1.28584747       0.37471178
H        0.52907758       0.04809854      -0.78527696
H        0.54596676       0.38527976       0.95878986
H        2.92877800      -0.76283094      -0.64394881
H        2.94245522      -0.42757625       1.08740847
H        2.52315094       2.00495440       0.61984686
H        2.53515298       1.68509827      -1.12285397
H        4.96155957       1.24142226       0.76637188
H        4.67366960       2.21377882      -2.14876247
