12
Properties=species:S:1:pos:R:3 -1244.2957336906138=T 10.159586=T 9.52093=T -7.9861=T -5.9997=T -8.441=T 0.4408=T -1.1915=T -0.244=T 8.02026=T 0.68567=T 4.3524417398=T 0.341504691=T pbc="F F F"
C        0.99193832       0.00678802      -0.16191505
C        2.32581504      -0.01595878       0.03156514
C        3.24101205      -1.22358167       0.13318577
N        4.49608648      -0.61376675       0.62899255
N        4.45694734       0.75590547       0.48214746
C        3.23147915       1.11096127       0.20709363
H        0.40992422      -0.90723311      -0.28167214
H        0.45064254       0.95213935      -0.20492429
H        3.38999515      -1.69409209      -0.85481439
H        2.87143179      -1.98792398       0.83133317
H        5.37803403      -1.00140201       0.29867060
H        2.96855390       2.16547427       0.14579756
