15
Properties=species:S:1:pos:R:3 -1616.37332027016=T 12.418784=T 12.40228=T -7.9284=T -5.9383=T -8.052=T 0.8431=T -0.6366=T 0.41=T 7.52288=T 0.16403=T 4.7870250684=T 0.60614031=T pbc="F F F"
C        0.95852489       0.05574615       0.00329575
C        2.44581289      -0.03990003       0.03514146
C        3.23937026      -1.12966692       0.01279474
C        4.63542483      -0.72257136       0.06307036
C        5.75137917      -1.47811600       0.06237243
O        4.68356120       0.66261696       0.11700044
C        3.33572794       1.17041732       0.10322148
H        0.49375355      -0.93659912      -0.05191189
H        0.61598730       0.64405964      -0.86346652
H        0.57342062       0.56561889       0.90138326
H        2.91924417      -2.16889933      -0.03475201
H        6.74085502      -1.02835434       0.10462185
H        5.66379744      -2.56081569       0.01921626
H        3.21258778       1.83973161      -0.76882515
H        3.16875295       1.77180222       1.01648754
