16
Properties=species:S:1:pos:R:3 -1543.3441665961395=T 10.601894=T 11.6751=T -8.6847=T -6.6607=T -10.282=T 0.9662=T 0.0299=T 0.585=T 9.68996=T 0.03717=T 5.6493972928=T 12.7613706374=T 0.232688188=T pbc="F F F"
C        1.62532903      -0.74268691       0.29595866
C        3.04776711      -0.42289384      -0.11408551
O        3.36078087       0.89880860       0.39465380
C        4.60132231       1.37833976       0.11494575
C        4.85556932       2.74817800       0.65758381
N        5.42196842       0.65216109      -0.56619378
O        6.65742182       1.35774821      -0.74738460
H        1.35205595      -1.74147674      -0.07158622
H        0.91890199      -0.01537865      -0.12712347
H        1.51806695      -0.73744302       1.38934687
H        3.17565500      -0.41971580      -1.20815316
H        3.77253743      -1.14149169       0.30047513
H        4.01547317       3.06678654       1.28338893
H        4.99108898       3.46288005      -0.16653406
H        5.78494519       2.75531910       1.24241212
H        7.16952646       0.70203529      -1.25040426
