13
Properties=species:S:1:pos:R:3 -1298.0495683821503=T 10.507512=T 10.88094=T -9.2311=T -7.3001=T -9.956=T 0.9663=T -0.418=T 0.639=T 9.34124=T -0.11998=T 4.388236498=T 10.8358432602=T 0.440511093=T pbc="F F F"
O        2.19887960      -0.52264723       1.50322066
N        2.49377635       0.24410953       0.35410320
C        2.81402572      -0.60288725      -0.80306005
C        3.97998090      -1.46023012      -0.57250872
C        4.93247695      -2.15081675      -0.27339085
C        3.29114977       1.37442681       0.59932753
N        3.57256856       1.92018224       1.71894910
H        3.03304589      -1.00597173       1.71735603
H        2.98270667       0.06521312      -1.66164337
H        1.92893731      -1.21551621      -1.02948507
H        5.78409273      -2.75981875      -0.04489107
H        3.62829709       1.83518210      -0.34070398
H        3.16367246       1.37047424       2.49002659
