15
Properties=species:S:1:pos:R:3 -1494.0422362122179=T 13.663062=T 14.34048=T -7.7681=T -5.9807=T -8.734=T 0.6977=T -0.3294=T -0.023=T 7.83215=T 0.78956=T 3.2409568442=T 10.8916493588=T 1.132776125=T pbc="F F F"
C        0.95584009      -0.00183900       0.07463188
C        2.47725274      -0.01468332       0.03998771
C        3.14647269       1.16814304       0.77196505
N        4.41620326       0.56939612       1.18281598
C        4.29264128      -0.79664037       1.31913617
S        5.40728390      -1.83219183       2.00558079
N        3.07223118      -1.13855197       0.77869491
H        0.54122612      -0.88335337      -0.43415119
H        0.56904587       0.88893046      -0.44109162
H        0.59147300       0.00308897       1.11132867
H        2.82630737      -0.02918978      -1.01151022
H        2.53584124       1.47414870       1.64257846
H        3.29532163       2.03526311       0.11479217
H        5.05656327       1.04046166       1.81491114
H        2.95790637      -2.10004242       0.46989011
