17
Properties=species:S:1:pos:R:3 -1695.964091600475=T 10.626273=T 11.7644=T -9.4704=T -7.2713=T -10.907=T 1.0972=T -0.8809=T -0.004=T 10.04312=T 0.62924=T 3.6752674036=T 8.1314730268=T 0.094059444=T pbc="F F F"
C        0.94158607      -0.19819433      -0.17038375
C        2.43034539      -0.27293316       0.18246137
C        2.64145413      -0.98876557       1.51805861
O        3.13302637      -1.07526047      -0.79545872
C        3.03444031       1.15632425       0.22091081
C        4.50538293       1.18906122       0.56399698
O        5.00335935       1.95440480       1.37144099
H        0.79162932       0.30134952      -1.14082550
H        0.37972683       0.36864619       0.58580427
H        0.52016801      -1.21133929      -0.23182526
H        2.19493726      -0.41543525       2.34167967
H        3.71269530      -1.11556948       1.72740306
H        2.18028977      -1.98502753       1.48786807
H        2.86785928      -0.76520118      -1.67977648
H        2.49346526       1.80306333       0.92716566
H        2.92766848       1.60064843      -0.78668611
H        5.13526595       0.45183852       0.00740633
