19
Properties=species:S:1:pos:R:3 -1873.3087444262037=T 11.774679=T 13.40724=T -9.9204=T -7.6647=T -11.308=T 0.9498=T 0.0474=T 2.953=T 10.95228=T -2.70694=T 9.143471556=T 11.0486032362=T 0.204483541=T pbc="F F F"
C        1.62765212      -0.13488095       1.39627970
C        2.10229255       0.35463550       0.02478330
C        3.21240335       1.38191375       0.11321521
C        3.44283238       2.37611831      -0.99996472
C        2.88986046       2.84196815       0.33593495
C        3.74960928       3.69025555       1.23765105
O        3.73131587       5.08166906       0.88743304
H        0.82859127      -0.88371721       1.29920014
H        1.23890724       0.69811015       2.00102044
H        2.45228570      -0.59784888       1.95957403
H        1.25345310       0.79066379      -0.52902446
H        2.45021849      -0.50321528      -0.57607122
H        4.11949398       1.02576021       0.61411569
H        2.76392772       2.35035471      -1.85413843
H        4.47473279       2.63586893      -1.24787082
H        1.82659139       3.10130109       0.34724851
H        4.78579342       3.29686699       1.23542325
H        3.38475312       3.64998363       2.27576613
H        3.91501577       5.13356250      -0.06808580
