20
Properties=species:S:1:pos:R:3 -1956.5350413664191=T 12.023858=T 13.07031=T -8.3217=T -6.2626=T -9.838=T 0.8743=T -0.0654=T 2.993=T 9.14639=T -2.7022=T 8.0061975724=T 10.58902433=T 0.154169878=T pbc="F F F"
C        0.95611281       0.03696519       0.17596972
C        2.48322503       0.01097530       0.01271194
C        2.99288505      -1.33404974      -0.54817000
C        2.71245281      -1.48415137      -2.05199954
N        3.20474306      -0.36843894      -2.87254633
C        2.71947317       0.92360731      -2.36695887
C        3.00021344       1.16352417      -0.87488875
H        0.62699904       0.99123032       0.61438057
H        0.62129423      -0.77136325       0.84350764
H        0.42616715      -0.08551823      -0.77989003
H        2.91678071       0.14140719       1.01964228
H        2.54040540      -2.17342927       0.00740296
H        4.08379636      -1.39924817      -0.38686809
H        3.15853399      -2.41637419      -2.43201262
H        1.62562316      -1.56824446      -2.22873536
H        4.22961494      -0.36788649      -2.84537667
H        3.17091235       1.72411966      -2.97344057
H        1.63306677       0.96586876      -2.56034260
H        4.09165138       1.26145430      -0.73505960
H        2.55334916       2.12025191      -0.55406608
