11
Properties=species:S:1:pos:R:3 -1273.503580013855=T 11.112251=T 11.2098=T -8.7357=T -6.799=T -8.505=T 1.1542=T -0.4311=T 0.166=T 8.07649=T 0.43657=T 4.143178169=T 6.1287767632=T 0.438972789=T pbc="F F F"
C        0.91033830       0.00864290      -0.00285983
C        2.12682140       0.02960690      -0.00051134
C        3.53985680       0.02869871       0.00216463
C        4.39705469       1.13156573       0.00503689
N        5.65746841       0.62812451       0.00679920
N        5.70296253      -0.72680340       0.00544477
C        4.41999856      -1.09438128       0.00240137
H       -0.15984918      -0.00810425      -0.00492700
H        4.19023392       2.19632294       0.00590911
H        6.52935875       1.14750035       0.00905175
H        4.15130581      -2.14669312       0.00067045
