17
Properties=species:S:1:pos:R:3 -1707.9308901530965=T 11.993182=T 13.43088=T -9.8669=T -7.6327=T -9.824=T 0.9552=T 0.0408=T 2.308=T 9.38347=T -1.88768=T 4.3555165926=T 10.520398079=T 0.424775005=T pbc="F F F"
C        1.06625607      -0.14802491      -0.54425890
O        2.44684582      -0.04187224      -0.22693712
C        2.91682864       1.29383214      -0.36372040
C        4.41774439       1.31801920      -0.02493054
C        5.24317631       0.45843888      -1.00079099
C        4.88909823       2.70087006       0.01398411
C        5.27546450       3.85200265       0.02732088
H        0.78481985      -1.20043750      -0.41333596
H        0.86657734       0.15297351      -1.59017711
H        0.44671352       0.47848988       0.12513982
H        2.36683636       1.96966213       0.31944236
H        2.76082797       1.65755976      -1.39993109
H        4.51970995       0.89239637       0.98981649
H        5.17419918       0.86265619      -2.02100859
H        4.86137297      -0.57006740      -1.00162109
H        6.30066140       0.44781183      -0.70728882
H        5.62226749       4.86497944       0.04414695
