20
Properties=species:S:1:pos:R:3 -1942.5807453347188=T 12.810639=T 13.82308=T -9.117=T -6.9965=T -9.161=T 0.9658=T -0.0931=T 1.452=T 8.52221=T -0.7986=T 6.3980247608=T 0.372321297=T pbc="F F F"
C        3.14929904      -1.73840033      -0.08640839
C        2.71712721      -0.40225121       0.52417558
C        3.66467701       0.77328274       0.22062772
N        3.12273569       2.10354586       0.57748232
C        5.05684731       0.68063759       0.84263553
C        6.10930731       1.51118926       0.15829958
C        5.32394488      -0.04311608       1.94015457
H        2.41333968      -2.52808922       0.12249728
H        4.12107385      -2.06771095       0.30659521
H        3.24428409      -1.65643214      -1.18064084
H        2.58353143      -0.50006738       1.61572937
H        1.72467469      -0.12820057       0.12652323
H        3.81118015       0.79590468      -0.87730869
H        2.93907588       2.12741688       1.58530059
H        2.22086599       2.24211025       0.11323018
H        5.75541788       2.54573814       0.03651714
H        6.31132697       1.11967539      -0.85281449
H        7.05318453       1.51707197       0.71896897
H        4.57026327      -0.65465258       2.43882960
H        6.32433314      -0.04675232       2.37828554
