15
Properties=species:S:1:pos:R:3 -1448.1102420572033=T 10.858269=T 11.56316=T -9.2716=T -7.1742=T -10.647=T 1.5025=T -0.3057=T 0.526=T 10.17107=T 0.07794=T 5.5211957688=T 12.5729615118=T 0.203023377=T pbc="F F F"
O        2.22423327       0.54846108       2.57392239
N        2.97634881       0.56050342       1.37252166
C        2.98871808       1.72938655       0.84747052
C        3.71741785       1.94012835      -0.44408355
N        4.68638990       3.03517139      -0.30912144
C        6.02407521       2.62574771       0.13920652
C        5.78324010       3.01070645      -1.28318714
H        2.30877916      -0.38122957       2.85249881
H        2.48504306       2.58219277       1.32186880
H        2.99368425       2.23897507      -1.22287370
H        4.17805734       0.98205216      -0.75849599
H        6.18548291       1.56319610       0.34840196
H        6.52277365       3.31743008       0.82130610
H        6.10395307       3.98631689      -1.65525785
H        5.79198335       2.20372155      -2.02370708
