11
Properties=species:S:1:pos:R:3 -1225.435515215459=T 10.078725=T 10.04175=T -9.747=T -7.784=T -9.624=T -0.3919=T -2.0973=T -1.008=T 9.00717=T 1.56162=T 4.625359723=T 6.4519462722=T 0.463833192=T pbc="F F F"
C        2.89981280      -1.13047228       0.39067556
C        2.30914505       0.04039925       0.10323498
C        2.99103955       1.31916790       0.06545197
N        2.46022148       2.49251127      -0.20995544
C        3.54354469       3.32700140      -0.10194800
N        4.68245645       2.75006748       0.21643253
O        4.32177018       1.38853334       0.33277255
H        2.32335098      -2.05454925       0.40048171
H        3.96353750      -1.19548299       0.62130774
H        1.24458895       0.10195742      -0.12707105
H        3.49361238       4.40122645      -0.26339257
