22
Properties=species:S:1:pos:R:3 -2083.3050373142387=T 12.896696=T 14.28964=T -9.1692=T -6.9136=T -10.569=T 0.8657=T -0.0691=T 2.926=T 9.90786=T -2.60366=T 8.6646128268=T 10.4488457584=T 0.125379911=T pbc="F F F"
C        3.26789846      -0.77631115       1.66476422
C        2.75260218      -0.10588757       0.38197036
C        1.25196960      -0.37308598       0.20382892
C        3.08727381       1.40673529       0.28723860
C        2.48581589       2.25912282       1.41168900
C        4.60454335       1.64069794       0.16837878
N        4.89935167       3.02841024      -0.22538775
H        4.35217807      -0.64896845       1.79597892
H        3.06420139      -1.85723121       1.64015328
H        2.76968395      -0.37109372       2.55882434
H        3.27196404      -0.58553861      -0.46962376
H        0.66677851       0.02936864       1.04495005
H        1.05107003      -1.45371665       0.15329968
H        0.86909156       0.08408170      -0.72143308
H        2.64442428       1.75446266      -0.66795068
H        2.84944280       1.93374537       2.39844939
H        1.38777561       2.21162938       1.42277659
H        2.78441734       3.30727940       1.27895047
H        5.02498553       0.88299668      -0.52597645
H        5.08148979       1.47125382       1.14833749
H        4.63044642       3.17380152      -1.20242588
H        5.90569571       3.20035785      -0.17938247
