15
Properties=species:S:1:pos:R:3 -1531.9811246342704=T 10.530138=T 11.4396=T -9.4194=T -7.196=T -9.554=T 0.9241=T -0.3129=T 1.201=T 9.05786=T -0.63561=T 6.598410934=T 0.457558526=T pbc="F F F"
O        0.80227136       0.10693839       0.29335374
C        2.19605194       0.04876288       0.05829720
C        3.02129445       1.02969099       0.89608568
O        3.96404387      -0.02100957       1.26315565
C        3.04388592      -1.04793218       0.78738627
C        3.67798577      -2.13599296      -0.00553319
C        4.96539519      -2.15998415      -0.36977932
H        0.34301134      -0.33721705      -0.43907861
H        2.43822416       0.09404776      -1.01562761
H        2.45726906       1.39748469       1.77084776
H        3.51489443       1.86596309       0.38031097
H        2.45467338      -1.46516240       1.62863410
H        3.00679754      -2.95667737      -0.28440753
H        5.64020435      -1.35486087      -0.07459400
H        5.37358723      -2.98577127      -0.95275111
