18
Properties=species:S:1:pos:R:3 -1799.3497952083783=T 11.434064=T 12.52506=T -8.2748=T -6.2753=T -9.626=T 0.9546=T 0.0533=T 3.258=T 8.88341=T -3.07982=T 7.7363048476=T 11.176965942=T 0.170237528=T pbc="F F F"
C        1.09282168       0.05202505       0.38419210
N        2.51834063       0.00695532       0.03803020
C        2.84778170      -1.25748568      -0.66302986
C        2.56021639      -1.04122597      -2.15946842
C        3.64603027      -0.38163353      -2.97508004
C        2.56094980       0.46420660      -2.35331247
C        2.84861684       1.05237153      -0.96038319
H        0.86848879       1.01015769       0.87451755
H        0.86781653      -0.75054877       1.10113514
H        0.41194374      -0.05983537      -0.48701585
H        2.26790970      -2.08768407      -0.23761933
H        3.91654957      -1.48221160      -0.50494749
H        1.83062285      -1.67309702      -2.66666096
H        4.64729183      -0.32570041      -2.53650277
H        3.63320522      -0.52091931      -4.05727501
H        1.83195515       0.94760683      -3.00424994
H        3.91752260       1.30916557      -0.86419194
H        2.26924669       1.96361314      -0.75931772
