10
Properties=species:S:1:pos:R:3 -1149.9895496125423=T 11.365781=T 11.34754=T -9.8546=T -7.8604=T -10.03=T -0.6131=T -2.3377=T -1.646=T 9.29548=T 2.09667=T 3.2115225678=T 5.9291469046=T 0.283779676=T pbc="F F F"
O        2.65277840      -1.12192159       0.08517701
C        2.12526654      -0.02270917       0.01643762
C        2.88576845       1.25023307      -0.00629690
N        2.19192631       2.39219829      -0.08343807
S        3.26745696       3.66341811      -0.09304035
C        4.68423734       2.68022173       0.00681369
C        4.30677029       1.36101112       0.04751693
H        1.01875955       0.10858268      -0.03492381
H        5.68316567       3.10860739       0.02969309
H        4.97746050       0.50713837       0.11136079
