13
Properties=species:S:1:pos:R:3 -1356.909857430414=T 9.929604=T 10.48656=T -9.3718=T -7.2663=T -9.236=T 1.0297=T -0.5743=T -0.101=T 8.60245=T 0.66557=T 4.7629965816=T 6.8908691108=T 0.382738582=T pbc="F F F"
N        1.86152248      -0.34980184      -1.14752995
C        2.75018981      -0.04351069      -0.02188384
C        2.99399007       1.43097272       0.06187341
C        2.33104972       2.52188843      -0.43145605
C        3.10034731       3.61969451       0.03948623
N        4.14311880       3.24613247       0.75625223
O        4.08049544       1.83194652       0.76810074
H        1.56882538      -1.32685326      -1.09778698
H        2.36652996      -0.23885684      -2.03030124
H        3.73288508      -0.55377404      -0.03914864
H        2.24944918      -0.36844382       0.90577301
H        1.42742448       2.52187440      -1.02923560
H        2.93501228       4.68382143      -0.11667333
