17
Properties=species:S:1:pos:R:3 -1640.8609717355105=T 11.029556=T 12.1448=T -9.3319=T -7.2984=T -10.555=T 0.8349=T -0.1749=T 0.427=T 9.70586=T 0.23023=T 4.312047101=T 9.7265405182=T 0.18025484=T pbc="F F F"
C        1.36339847      -0.54827896      -0.04829948
C        2.87767908      -0.34739192       0.00361017
C        3.28778102       1.10725097      -0.26512195
C        4.79814363       1.27276899      -0.32695170
O        5.52859739       0.57775043      -1.03660832
N        5.31068830       2.26314520       0.48236903
N        6.65913157       2.67682141       0.33228051
H        1.09653926      -1.59722449       0.14326998
H        0.95923270      -0.27615508      -1.03554672
H        0.84742315       0.06875274       0.70367596
H        3.37739874      -0.98761578      -0.73840983
H        3.26337366      -0.65395435       0.98988049
H        2.84792691       1.77593011       0.49346897
H        2.88952167       1.42249878      -1.24464560
H        4.68580748       3.00314126       0.79562094
H        6.95248583       2.30319253      -0.58155320
H        7.21265114       2.15152817       1.01891075
