13
Properties=species:S:1:pos:R:3 -1480.0311059735025=T 15.049204=T 14.83754=T -8.6769=T -6.7477=T -8.263=T -0.1376=T -1.645=T 0.05=T 7.71562=T 0.55213=T 2.9955513544=T 7.6841315388=T 1.042176841=T pbc="F F F"
C        1.00171422       0.04523751      -0.03798971
C        2.50853912      -0.05741509       0.04981962
C        3.15675485      -1.23814891       0.17161166
C        3.22834593       1.16434194      -0.00170299
C        3.79614782       2.25238435      -0.04651804
C        4.44285717       3.44276487      -0.09654235
C        5.02300265       4.51754613      -0.14179396
H        0.60755605       0.66365163       0.78148373
H        0.54079369      -0.94922161       0.01579441
H        0.70078674       0.52578588      -0.98028539
H        2.60073489      -2.17553587       0.21196582
H        4.24353892      -1.28459651       0.23246914
H        5.53213794       5.45808568      -0.18123194
