17
Properties=species:S:1:pos:R:3 -1732.5740712145373=T 13.117801=T 13.27248=T -7.9099=T -6.0061=T -8.277=T 1.0364=T -0.4612=T 0.285=T 7.78086=T 0.25829=T 4.9462106938=T 0.679650778=T pbc="F F F"
C        5.09431157      -0.31444048      -0.47168882
O        3.68983561      -0.04399604      -0.49455575
C        3.29515298       1.18081632      -0.04963263
C        4.07178527       2.18703668       0.41388640
C        3.55034648       3.47132868       0.87267904
C        2.06021611       3.70904470       0.84133784
C        4.39181081       4.43149168       1.31917528
H        5.21055905      -1.33356916      -0.85627327
H        5.49052531      -0.25610198       0.55516525
H        5.64279329       0.39183071      -1.11605519
H        2.20873604       1.26000850      -0.11535688
H        5.15590550       2.06389921       0.46071615
H        1.66234955       3.62051317      -0.18189520
H        1.81739302       4.71142746       1.21520009
H        1.52503367       2.97362603       1.46263585
H        5.47175681       4.27402149       1.34774175
H        4.01855893       5.39590303       1.66581010
