15
Properties=species:S:1:pos:R:3 -1565.2759976021791=T 10.893761=T 11.48775=T -8.4979=T -6.5525=T -9.483=T 0.8573=T -0.0446=T 1.158=T 8.68599=T -0.53311=T 4.9351511426=T 8.4168640016=T 0.247019608=T pbc="F F F"
N        1.22503189       0.04292012       0.60162647
C        2.33443681      -0.04160599      -0.04698493
N        2.69841150      -1.17605008      -0.75937944
C        4.13541813      -1.26612090      -1.00259884
C        4.60171280       0.17701780      -0.85566018
C        3.86897991       1.21941816      -1.65054721
C        3.45320718       0.94343367      -0.21490534
H        1.11810565       0.98757345       0.98699882
H        2.13360193      -2.01098107      -0.63219900
H        4.64510632      -1.90305715      -0.25571090
H        4.34431651      -1.67718649      -2.00433344
H        5.63506583       0.35953688      -0.56328085
H        4.39169571       2.15865560      -1.83259755
H        3.18971785       0.89957745      -2.44270049
H        3.60036198       1.70381855       0.55072289
