12
Properties=species:S:1:pos:R:3 -1330.2317644677987=T 10.339126=T 11.25045=T -10.3025=T -8.0878=T -9.971=T 0.6518=T -1.1273=T 0.596=T 9.48991=T -0.10238=T 5.330964049=T 6.5271437812=T 0.510190278=T pbc="F F F"
C        1.76733103      -0.27206027      -1.17835576
C        2.23109286       0.08647646       0.02406457
C        3.29346492       1.09836409       0.23399825
O        3.82594812       1.77313990      -0.91662490
C        3.03745998       2.55347980      -0.00207628
C        3.73154707       3.56028019       0.76973891
N        4.26550092       4.37756801       1.40945928
H        0.98748261      -1.02621854      -1.27901631
H        2.16718006       0.17535757      -2.08979595
H        1.84837056      -0.37999668       0.93661158
H        4.04289766       0.86764221       1.00138900
H        2.04845421       2.84833726      -0.36824241
