15
Properties=species:S:1:pos:R:3 -1546.2689908764323=T 11.606167=T 11.7697=T -8.3909=T -6.3591=T -8.881=T 0.8573=T -0.1031=T 0.954=T 8.5393=T -0.26238=T 4.8971742308=T 6.0761075104=T 0.25102168=T pbc="F F F"
N        1.16847373      -0.01363661       0.56950648
N        2.40543757       0.01181938      -0.05442391
C        2.98913144       1.15072771      -0.16304356
C        4.38108774       1.29515743      -0.75703654
C        4.63128567       2.77695743      -0.65803353
C        3.60040672       3.43620447      -0.10772381
C        2.46604002       2.51470290       0.26406171
H        0.66293053      -0.84565179       0.27018158
H        0.59707872       0.82937864       0.43430880
H        4.42362278       0.93087221      -1.79831631
H        5.12598834       0.70444914      -0.19577440
H        5.55593341       3.24287018      -1.00081257
H        3.56485402       4.51301506       0.06244334
H        2.23058187       2.53589600       1.34522013
H        1.52339745       2.78329787      -0.25469742
