15
Properties=species:S:1:pos:R:3 -1612.3907725852887=T 11.599563=T 12.28641=T -7.9513=T -5.9022=T -8.522=T 1.3589=T -0.1007=T 1.189=T 8.10315=T -0.65025=T 5.5014200018=T 11.4426183456=T 0.292171748=T pbc="F F F"
C        0.96625006      -0.02113004       0.18287590
C        2.43452035       0.02470014      -0.07249727
C        3.27818846      -0.99836495      -0.26112719
O        4.60080971      -0.62941645      -0.47919670
C        4.64655431       0.76889738      -0.43998679
C        5.79741969       1.42136922      -0.63606062
C        3.25120632       1.29555841      -0.16120820
H        0.59573963      -1.05484386       0.20050469
H        0.40573836       0.52565818      -0.59332875
H        0.71013144       0.44660909       1.14793173
H        3.10652832      -2.07217245      -0.27275797
H        6.72237780       0.88120448      -0.82902902
H        5.82048461       2.50828606      -0.60462768
H        2.89986680       1.96492207      -0.96486559
H        3.21586413       1.87800272       0.77579346
