16
Properties=species:S:1:pos:R:3 -1636.8150527862388=T 11.981151=T 13.60725=T -9.2643=T -7.1659=T -9.741=T 0.8849=T -0.0141=T 2.287=T 9.35221=T -1.90909=T 4.3700601504=T 10.6943628356=T 0.417446786=T pbc="F F F"
C        1.18654204      -0.19815314       0.24865934
C        2.66874983      -0.06388216      -0.00106297
N        3.26312106      -0.47967743      -1.29405645
C        3.19861069       0.95570889      -0.94561803
C        4.53240723       1.65208725      -0.71404502
C        5.10929950       2.19661822      -1.93883823
C        5.56148277       2.65614230      -2.96743024
H        0.87440104       0.40779638       1.11281403
H        0.91509306      -1.24369088       0.45917690
H        0.60552046       0.13576201      -0.62444774
H        3.30466237      -0.33205969       0.85088287
H        2.51385243      -0.70658147      -1.95740057
H        2.45398096       1.56882865      -1.46479502
H        5.23180906       0.92777256      -0.26624781
H        4.39745524       2.46746796       0.01745323
H        5.96875228       3.05387054      -3.87418430
