16
Properties=species:S:1:pos:R:3 -1610.0139424975969=T 10.345695=T 11.24878=T -9.039=T -6.8935=T -10.513=T 0.8221=T -0.138=T 2.993=T 10.00028=T -2.6732=T 8.4216126654=T 11.3622382218=T 0.161008799=T pbc="F F F"
N        1.03553881       0.06713888       0.12684807
C        2.49095241      -0.06381688      -0.06603463
C        2.85539123      -1.46543152      -0.60282153
O        2.98169495      -1.36635867      -2.03549150
C        3.34160746      -0.02984409      -2.34279546
C        2.20547184       0.94661162      -2.45711730
C        3.01857654       0.85830753      -1.17082410
H        0.80615560       1.03968322       0.34805389
H        0.74373312      -0.48744550       0.93562499
H        3.07004672       0.13443243       0.85760271
H        2.07794018      -2.21357025      -0.38802727
H        3.81566478      -1.80352257      -0.16898823
H        4.25173459       0.07210126      -2.93903672
H        2.34899853       1.83469316      -3.07445427
H        1.19868380       0.52954687      -2.43496654
H        3.66859944       1.68845450      -0.89419209
