21
Properties=species:S:1:pos:R:3 -1946.1394979156025=T 12.955541=T 14.65844=T -8.5474=T -6.4022=T -10.061=T 0.9781=T 0.047=T 3.374=T 9.33735=T -3.14357=T 8.173219113=T 11.855913278=T 0.214530215=T pbc="F F F"
C        1.00634572      -0.04896981      -0.00830454
C        2.53014868      -0.04612023       0.03335272
N        3.05915577       1.31674336      -0.05452137
C        4.51707169       1.37106799       0.05118931
C        5.01975893       2.81146289      -0.01632769
N        6.47840652       2.86404667       0.07821758
C        6.99594365       4.22914233       0.02009703
H        0.61622228      -1.07575855       0.02599895
H        0.64236127       0.43484061      -0.92551766
H        0.58523700       0.49414453       0.85247853
H        2.92638644      -0.61206803      -0.82749803
H        2.88154673      -0.58055906       0.94466712
H        2.65308444       1.87194369       0.70592366
H        4.93393340       0.80118849      -0.79957991
H        4.91227133       0.89482950       0.97412418
H        4.61139831       3.37969421       0.83973394
H        4.61866350       3.29296045      -0.93446747
H        6.87632709       2.32506142      -0.69588902
H        6.68531097       4.77602474       0.92412730
H        6.64830914       4.81253902      -0.85925002
H        8.09452713       4.20701579       0.00793540
