12
Properties=species:S:1:pos:R:3 -1331.2221526414194=T 13.318673=T 13.00581=T -8.6428=T -6.8321=T -8.735=T 0.1945=T -1.3382=T -0.58=T 8.20668=T 1.16875=T 4.3480774326=T 10.4053142738=T 0.474380782=T pbc="F F F"
C        2.68092484      -1.16541082       0.38367407
C        2.20316281       0.07207511       0.16473908
C        2.98856911       1.29959812       0.06500321
C        2.44622047       2.55672862      -0.16192296
S        3.69574750       3.73125321      -0.21165574
N        4.94301344       2.63115533       0.05842987
C        4.41280303       1.42456075       0.17905683
H        2.00641491      -2.01914102       0.44095381
H        3.74473256      -1.37114597       0.51206120
H        1.12290136       0.19936904       0.04591702
H        1.39925647       2.81852712      -0.29553576
H        5.09421350       0.59093052       0.35925936
