14
Properties=species:S:1:pos:R:3 -1443.475774501141=T 9.64419=T 10.25475=T -9.4253=T -7.1446=T -9.325=T 1.2991=T -0.2034=T 1.274=T 8.72349=T -0.65182=T 6.3743186376=T 0.408651404=T pbc="F F F"
C        1.01959991      -0.02429188       0.24396143
C        2.33418578       0.03794665       0.01040712
C        3.20129358       1.27879134      -0.06762403
C        4.47806067       0.73859616      -0.72478652
O        4.58956690      -0.61226694      -0.25181162
C        3.25610110      -1.14052697      -0.25393640
H        0.49187334      -0.97930556       0.28553440
H        0.42349726       0.87563693       0.40326041
H        3.42698831       1.64495881       0.94697886
H        2.72804028       2.09490013      -0.63036307
H        4.38660794       0.75453005      -1.82927175
H        5.39605673       1.26679098      -0.43615810
H        3.02288425      -1.59702735      -1.23759047
H        3.20070395      -1.92423235       0.51540973
