17
Properties=species:S:1:pos:R:3 -1703.8109291101935=T 10.535268=T 11.72818=T -9.5995=T -7.5267=T -10.716=T 0.8391=T -0.9738=T 0.005=T 9.81089=T 0.73004=T 3.7240682932=T 8.0223653468=T 0.158492396=T pbc="F F F"
C        3.75056437      -1.77036116      -0.16638921
C        2.74497522      -0.62088372      -0.03925301
O        2.02293318      -0.67462045       1.19323316
C        3.39704293       0.76127078      -0.23998005
C        4.38726857       1.16706212       0.84188722
C        5.41268092       2.21327838       0.46867666
O        4.34909390       0.68654183       1.97247170
H        4.22917329      -1.77364445      -1.15819406
H        3.22950499      -2.72740615      -0.03164376
H        4.53594701      -1.69928505       0.60004892
H        1.98114026      -0.74030842      -0.82591522
H        2.67432115      -0.40991619       1.87778628
H        2.60462839       1.53216331      -0.22868958
H        3.87809157       0.83448595      -1.22892888
H        6.13167436       1.77695857      -0.24299923
H        5.94683509       2.55982963       1.35999454
H        4.93556481       3.06031501      -0.04637549
