17
Properties=species:S:1:pos:R:3 -1677.225080372643=T 11.264813=T 12.22396=T -8.7382=T -6.7143=T -9.274=T 0.9165=T -0.0689=T 1.058=T 8.81243=T -0.49562=T 6.1045622974=T 0.30545993=T pbc="F F F"
C        3.60930279      -1.08198964       0.88004170
O        2.66197040      -0.20506073       0.26473042
C        3.10981026       1.04375831      -0.05043539
C        4.34107205       1.55372193       0.13525561
C        4.74599973       2.96097199      -0.21464709
C        3.67219198       3.81479456      -0.88654529
O        5.27221177       3.62725809       0.96137295
H        3.07721328      -2.02204646       1.06257705
H        3.97010805      -0.66583596       1.83475130
H        4.46890754      -1.26315447       0.21410585
H        2.29986165       1.61395843      -0.50939775
H        5.13158747       0.95325476       0.58990867
H        5.62128406       2.91497017      -0.88652518
H        2.77968355       3.91248561      -0.24950886
H        3.36618250       3.39064513      -1.85411462
H        4.07317538       4.82137556      -1.06122422
H        4.60246755       3.51536272       1.66120486
