13
Properties=species:S:1:pos:R:3 -1342.7374074531492=T 10.171285=T 10.16336=T -8.3056=T -6.3242=T -9.11=T 0.9911=T -0.3336=T 0.615=T 8.67907=T -0.04272=T 4.6883322124=T 6.183367799=T 0.30159552=T pbc="F F F"
C        1.07124416       1.16883492      -0.14806827
N       -0.19207326       1.45267996       0.55713065
N       -1.34042628       0.76964120       0.23352200
C       -1.41807537      -0.49033653       0.03455017
O       -0.49287341      -1.52480507       0.02157413
C        0.86921614      -1.35606124       0.04175228
C        1.58572818      -0.22629269      -0.01387264
H        1.81276664       1.87534715       0.25511300
H        0.96173924       1.40257060      -1.22651529
H       -0.41563290       2.44495848       0.47030251
H       -2.40792220      -0.91464360      -0.13191398
H        1.34667933      -2.33483133       0.09533799
H        2.66875972      -0.35331186      -0.00133255
