20
Properties=species:S:1:pos:R:3 -1876.5575660541115=T 12.049802=T 13.35931=T -8.568=T -6.3968=T -9.934=T 0.9624=T 0.0455=T 3.136=T 9.20441=T -2.8205=T 8.101679191=T 11.780095839=T 0.106557687=T pbc="F F F"
C        3.53835348      -2.49838163      -1.19767839
N        4.12255094      -1.23948929      -1.64948518
C        4.13171237      -0.22242499      -0.60164055
C        4.67779026       1.11257327      -1.10951522
C        6.12020817       1.01994582      -1.60796332
O        3.76320770       1.54529990      -2.13665278
C        3.90991184       2.90873427      -2.50362184
H        3.48050060      -3.20169637      -2.04006244
H        2.52273628      -2.39711927      -0.75730171
H        4.18709930      -2.95126636      -0.43094481
H        3.57977003      -0.87238139      -2.43550640
H        4.77668773      -0.57419031       0.22218199
H        3.12257969      -0.04114261      -0.16910757
H        4.62417629       1.83814655      -0.27080245
H        6.19728765       0.27933649      -2.41433353
H        6.77818713       0.70227842      -0.78579745
H        6.48766933       1.99060581      -1.96763165
H        3.07271647       3.15046007      -3.17123609
H        4.85527286       3.10529311      -3.04030456
H        3.86352189       3.57103852      -1.61769606
