18
Properties=species:S:1:pos:R:3 -1777.7471498499924=T 13.075571=T 14.74804=T -8.3577=T -6.3617=T -9.152=T 0.8551=T -0.0283=T 2.557=T 8.74905=T -2.0409=T 4.1607469852=T 10.131144032=T 0.850090733=T pbc="F F F"
C        0.96333792      -0.01428077       0.04556183
C        2.41818209       0.00974325       0.00956051
C        3.63287025       0.03965916      -0.02810468
C        5.09322997       0.03636570      -0.06778384
N        5.68833386       1.38022175      -0.00253187
C        5.37342429       2.04385069       1.25912023
C        7.13022272       1.29538735      -0.20191591
H        0.55398130       1.00687431       0.06483720
H        0.59215724      -0.54082810       0.93754970
H        0.55144716      -0.52065942      -0.84019917
H        5.42556965      -0.42839776      -1.01158620
H        5.47481779      -0.61686653       0.75480109
H        4.28387248       2.10405964       1.38075458
H        5.78003578       3.06495115       1.24562950
H        5.79598803       1.51200876       2.14231083
H        7.34735726       0.83899158      -1.17881487
H        7.64590605       0.69690407       0.58413278
H        7.56049616       2.30674516      -0.19463170
