17
Properties=species:S:1:pos:R:3 -1678.7673541993602=T 10.632671=T 12.01282=T -9.9825=T -7.6465=T -11.225=T 0.8938=T -0.129=T 2.998=T 10.8936=T -2.76121=T 9.0801643044=T 10.694474423=T 0.166584857=T pbc="F F F"
O        1.75253048       0.00307336       1.39237044
C        2.03829345       0.32039663       0.01743132
C        3.13149100       1.34925524       0.00502726
C        3.24526974       2.35741566      -1.11467760
C        2.79621513       2.80663728       0.25480511
C        3.69814490       3.60976759       1.15487892
O        3.39489698       3.40694120       2.54006710
H        1.11772932      -0.73259838       1.40688107
H        1.14044647       0.72433525      -0.48903526
H        2.35832107      -0.58545467      -0.53075293
H        4.07940997       1.00097127       0.42742614
H        2.49873385       2.33516580      -1.91010322
H        4.24928971       2.62821408      -1.44478126
H        1.73097171       3.03086942       0.36320565
H        3.57730300       4.68981523       0.97661237
H        4.75539689       3.35427040       0.93828700
H        3.20573632       2.45580464       2.64915790
