11
Properties=species:S:1:pos:R:3 -1255.454541041955=T 9.866775=T 9.66074=T -8.905=T -7.0049=T -9.396=T -0.742=T -2.5432=T -1.432=T 8.84774=T 1.7941=T 3.3575904744=T 6.6402934048=T 0.417950094=T pbc="F F F"
N        1.01029875      -0.01442788      -0.26412174
C        2.26980812      -0.06637037      -0.01894908
C        3.12464637      -1.23409533       0.13530489
C        4.38051457      -0.78545508       0.38511704
N        4.44470926       0.61671659       0.41256504
C        3.18853831       1.16170084       0.17342264
O        2.88456655       2.34165145       0.12679615
H        0.72918998       0.98113607      -0.30829081
H        2.81091890      -2.26978570       0.06326291
H        5.28706808      -1.36089199       0.55599246
H        5.27988113       1.16812140       0.58148051
