17
Properties=species:S:1:pos:R:3 -1677.418316781489=T 12.52023=T 12.87813=T -8.3157=T -6.4676=T -9.135=T 1.2107=T -0.4325=T 0.916=T 8.22097=T -0.41047=T 5.0339803832=T 5.6736241572=T 0.279047609=T pbc="F F F"
C        0.80779490       0.95416995      -0.58795070
N        2.19079569       1.03501415      -0.14865652
C        2.91002850      -0.20085732       0.15766723
C        3.13666672      -1.06672948      -1.05279153
C        2.72188547      -2.33366695      -1.16011978
C        2.79601195       2.26546199      -0.01527306
N        2.31970733       3.44201416      -0.23701913
H        0.67330073       1.40160916      -1.58662453
H        0.13453018       1.46900024       0.11806485
H        0.51266633      -0.09926136      -0.64933832
H        2.37318790      -0.77460220       0.93470838
H        3.87985555       0.09409117       0.59057297
H        3.67107305      -0.59089961      -1.88216488
H        2.18130133      -2.82463693      -0.34613937
H        2.91667932      -2.92660166      -2.05479274
H        3.83482591       2.18484979       0.33802974
H        1.34484915       3.40245488      -0.56533261
