12
Properties=species:S:1:pos:R:3 -1405.2641413856074=T 12.046386=T 12.0918=T -8.0508=T -6.1887=T -7.91=T 0.678=T -0.1853=T 0.67=T 7.35489=T -0.01761=T 4.1186165424=T 6.0214172858=T 0.575500958=T pbc="F F F"
C        0.90931129       0.03986948      -0.00439581
C        2.12683073       0.02900181      -0.00150521
C        3.54146400      -0.00070301       0.00248799
C        4.38900457       1.10728463       0.00510558
N        5.67934057       0.64278422       0.00860745
C        5.68991243      -0.73799057       0.00830907
C        4.37977030      -1.16720544       0.00453011
H       -0.16080964       0.05045523      -0.00686076
H        4.15819497       2.16645545       0.00472130
H        6.50482030       1.23065000       0.01105353
H        6.62213708      -1.29215335       0.01077681
H        4.03655341      -2.19640845       0.00332993
