19
Properties=species:S:1:pos:R:3 -1780.3920193064023=T 11.322809=T 12.46169=T -8.6416=T -6.462=T -10.036=T 0.9523=T 0.0261=T 3.143=T 9.32036=T -2.84534=T 8.1355025718=T 11.1126048094=T 0.118863832=T pbc="F F F"
C        1.12675640       1.91892441       1.11968486
N        2.58451500       2.00822353       1.10831056
C        3.17548895       1.43353021      -0.10054362
C        4.70824199       1.52308703      -0.10369487
C        5.28446944       0.76173141      -1.30261026
C        5.19319912       2.97687341      -0.07996287
H        0.73992324       2.29761956       2.07619425
H        0.73083895       0.89174602       0.96482559
H        0.71601036       2.55491481       0.31981252
H        2.95540176       1.50967063       1.92208944
H        2.78023354       1.99747309      -0.96626415
H        2.87249237       0.37244053      -0.25642250
H        5.06796244       1.02420952       0.81777776
H        4.94767822       1.21284828      -2.25019976
H        4.97109290      -0.29313464      -1.30287631
H        6.38392010       0.78826348      -1.29645703
H        4.91040467       3.49137833      -1.01310677
H        6.28827770       3.02843724       0.01159246
H        4.74242285       3.52773315       0.75596069
