14
Properties=species:S:1:pos:R:3 -1480.2864353306672=T 12.440975=T 13.37889=T -8.4651=T -6.3622=T -8.191=T 1.0032=T -0.5335=T 0.714=T 7.80323=T -0.12145=T 3.866813375=T 10.8140093256=T 0.463632937=T pbc="F F F"
C        0.88599188      -0.01510413       0.07124197
C        2.37664496      -0.00212069       0.16975939
C        3.16145858       1.02484025      -0.22261529
C        4.57578466       1.04786677      -0.13029016
C        5.79277661       1.11410272      -0.06547111
C        7.24228156       1.18112119       0.02032721
H        0.53607400      -0.86027689      -0.54436087
H        0.49813717       0.91421396      -0.36892171
H        0.42427603      -0.14610566       1.06368651
H        2.85688593      -0.89060454       0.59257575
H        2.68743804       1.91871564      -0.64720285
H        7.58617410       2.22033479       0.13387173
H        7.71592851       0.77079429      -0.88493730
H        7.61725798       0.60723230       0.88138674
