18
Properties=species:S:1:pos:R:3 -1753.2840859534915=T 11.623349=T 13.17912=T -9.2269=T -7.0751=T -10.624=T 1.055=T -0.9845=T -0.017=T 10.10209=T 0.63195=T 3.6637739014=T 12.8407588732=T 0.117606556=T pbc="F F F"
C       -0.24127960       1.52579651       0.57357065
C        0.99115132       0.64577202       0.78608220
C        2.25495024       1.24371867       0.17168611
N        3.42857615       0.40808781       0.44585505
C        4.65503111       0.90357055      -0.16535751
C        5.86955617       0.17049094       0.37258316
O        6.88221232      -0.04687398      -0.26506464
H       -1.13804253       1.06615000       1.01149673
H       -0.43951938       1.68914323      -0.49655911
H       -0.11106642       2.51294025       1.04241966
H        0.81251690      -0.35073141       0.34466073
H        1.16619953       0.48330771       1.86138227
H        2.44471484       2.23792594       0.61390243
H        2.09243245       1.40972282      -0.91650608
H        3.24355865      -0.54108134       0.10853686
H        4.78673256       1.95880604       0.14304467
H        4.68471346       0.89258643      -1.27365342
H        5.76265222      -0.15576220       1.43966024
