19
Properties=species:S:1:pos:R:3 -1803.649323610275=T 12.141783=T 13.38045=T -8.7773=T -6.7124=T -10.298=T 0.884=T -0.0429=T 3.04=T 9.85094=T -2.68794=T 8.3328634866=T 11.8108195698=T 0.220870601=T pbc="F F F"
C        3.14136643      -1.18832287      -0.51894049
C        2.46729315       0.03670916       0.11884961
N        1.92618398      -0.19885298       1.47212864
C        3.42415439       1.21260679       0.17713854
C        3.73520644       2.06889864      -1.00738862
N        2.87184844       2.56070250       0.07316296
C        3.45925515       3.56549599       0.95318701
H        3.49564572      -0.97249233      -1.53877399
H        2.43925432      -2.03326654      -0.57401625
H        4.00970117      -1.51138557       0.07801994
H        1.61719965       0.35212098      -0.50916067
H        2.66638350      -0.58439650       2.06847082
H        1.20173608      -0.92062978       1.42910359
H        4.25714551       1.08274633       0.88623502
H        3.23590115       1.88995518      -1.96421492
H        4.75204045       2.47187541      -1.08117609
H        2.94440676       3.53348185       1.92398181
H        3.31161800       4.56343915       0.51450993
H        4.54609972       3.41814458       1.12573315
