17
Properties=species:S:1:pos:R:3 -1654.8649292278121=T 12.073238=T 13.02069=T -9.0278=T -6.8694=T -9.656=T 0.7666=T -0.2124=T 2.35=T 9.28792=T -1.97623=T 4.383215065=T 10.7389358026=T 0.25772818=T pbc="F F F"
C        0.93878614      -0.13124585       0.05225347
C        2.46806401      -0.08355883      -0.07129039
N        2.98746545      -0.71302070      -1.29250883
C        3.00762536       1.38423109      -0.01506395
N        2.51674420       2.22596329       1.08929317
C        4.47302790       1.39411494       0.00433923
C        5.68313973       1.40866200       0.08939153
H        0.57587187       0.25239584       1.01803598
H        0.58780289      -1.16946165      -0.03630630
H        0.46179131       0.45235925      -0.75308251
H        2.91459857      -0.62358538       0.78210266
H        2.52044054      -0.31510777      -2.11393840
H        2.76641251      -1.71129916      -1.29342799
H        2.67825546       1.87440761      -0.95344916
H        2.83717190       1.84304090       1.98287126
H        1.49515882       2.22291115       1.10324631
H        6.75272334       1.41925327       0.13710393
