18
Properties=species:S:1:pos:R:3 -1768.8151604560287=T 11.077969=T 12.51253=T -9.644=T -7.4261=T -10.832=T 0.9734=T 0.1082=T 3.282=T 10.47677=T -3.00176=T 8.8891886686=T 12.0003941638=T 0.296036066=T pbc="F F F"
C        1.00209473       0.00696209      -0.03652683
C        2.51507369      -0.02248951      -0.01405436
C        3.34352001      -0.75834814      -1.05740458
C        2.72703385      -1.52650760      -2.20635808
C        3.34031304       0.75587768      -1.01798574
C        4.56632324       1.53389690      -0.59521086
H        0.62132615       0.87422562       0.52514555
H        0.57298383      -0.89918826       0.41986725
H        0.60630085       0.08309865      -1.05922710
H        2.93943514      -0.05279652       0.99516105
H        4.25421356      -1.21872934      -0.65962096
H        1.83617169      -1.02396539      -2.60812793
H        2.42620577      -2.54038152      -1.89886207
H        3.44430117      -1.63003397      -3.03515018
H        2.75296288       1.22619311      -1.81493625
H        5.10775869       1.00795237       0.20582369
H        4.29984811       2.53252483      -0.21486388
H        5.26661359       1.67081898      -1.43411871
