17
Properties=species:S:1:pos:R:3 -1747.2062258798398=T 11.316455=T 12.06773=T -8.2989=T -6.2153=T -8.879=T 0.9028=T 0.004=T 1.268=T 8.4428=T -0.6926=T 5.8332685308=T 0.234534713=T pbc="F F F"
C        0.94906669       0.01496586      -0.00860958
C        2.49146783       0.02532075      -0.04670824
C        2.98200317       0.15022537      -1.49777529
C        3.08798990      -1.23139121       0.64890966
O        3.51268050      -0.83515578       1.99026053
C        3.54266225       0.53873138       1.97299968
C        3.03862036       1.10848620       0.87131573
H        0.58475458      -0.11811385       1.01983250
H        0.54613941      -0.80062496      -0.63036656
H        0.54305298       0.96318436      -0.39178636
H        4.07940211       0.19182726      -1.54139008
H        2.58751716       1.06524959      -1.96433444
H        2.64233455      -0.70359727      -2.10511190
H        3.98354113      -1.59533967       0.11803119
H        2.36960764      -2.05534967       0.75879840
H        3.95923919       0.98855167       2.87279962
H        2.94809056       2.17647997       0.68943513
