13
Properties=species:S:1:pos:R:3 -1450.1441560174133=T 13.802241=T 13.76209=T -9.2452=T -7.3579=T -9.115=T -0.7585=T -2.3958=T -1.059=T 8.60628=T 1.77301=T 3.2547688846=T 5.7927747032=T 0.458952162=T pbc="F F F"
C        0.90524721      -0.02750756       0.04937094
C        2.39208840       0.00734845       0.12431668
C        3.15112954       1.08875005      -0.17133424
C        4.55810151       1.10105616      -0.09544771
C        5.78099895       1.18078658      -0.05215992
C        7.21058696       1.19752278       0.02093152
O        7.91045814       2.16981924      -0.24863210
H        0.56996474      -0.80810493      -0.65244831
H        0.48429751       0.93463226      -0.26928199
H        0.47343765      -0.29288751       1.02758862
H        2.89874383      -0.90971751       0.44092824
H        2.66650141       2.01837899      -0.49044214
H        7.66363413       0.23169300       0.35184041
