16
Properties=species:S:1:pos:R:3 -1611.564570038152=T 10.95485=T 11.6867=T -9.1551=T -7.0876=T -10.28=T 1.3767=T -0.0646=T 0.727=T 9.65458=T -0.00674999999998=T 5.5349582148=T 11.6457198122=T 0.231212667=T pbc="F F F"
O        1.32193725       0.02117202       0.88366997
N        2.45697971      -0.04098085       0.01355392
C        2.92216823       1.13427932      -0.20212780
C        2.44537559       2.45215691       0.36753426
C        3.34214008       3.50550663      -0.31330331
C        4.63638765       2.73994815      -0.64943847
C        4.13204389       1.35173479      -1.08594006
H        1.09145723      -0.92107205       0.96076236
H        2.58903150       2.43562433       1.46162257
H        1.36781863       2.59888943       0.20446278
H        2.86680645       3.85389463      -1.24459511
H        3.51640395       4.38957188       0.31509223
H        5.24447456       3.23609188      -1.41815557
H        5.25848474       2.64142337       0.25520031
H        3.80981472       1.38310985      -2.14179923
H        4.86986583       0.54453972      -0.99199885
