17
Properties=species:S:1:pos:R:3 -1730.4223084100697=T 11.553501=T 12.53955=T -9.4074=T -7.1843=T -9.527=T 1.0362=T -0.0474=T 1.264=T 8.98892=T -0.68368=T 6.594319396=T 0.419278924=T pbc="F F F"
O        0.74221330      -0.08057182       0.39870301
C        2.13859882      -0.09258062       0.12003842
C        2.92056429       1.03815900       0.81165072
C        4.07237526       0.02947789       1.09240124
C        3.04325596      -1.12842417       0.84194147
C        5.23367086       0.01265042       0.14251399
C        5.52555608       0.91136973      -0.80567482
H        0.31528472      -0.75830661      -0.15331927
H        2.32287050      -0.09811140      -0.96799016
H        2.41155996       1.31444539       1.74582339
H        3.13264984       1.94924933       0.23733236
H        4.46366727       0.05121886       2.12204576
H        3.38817084      -2.00309583       0.27239697
H        2.57171530      -1.45436314       1.77974738
H        5.90272085      -0.84862852       0.26712590
H        4.90695456       1.79397659      -0.98239345
H        6.40370159       0.79311490      -1.44154291
