15
Properties=species:S:1:pos:R:3 -1495.266249823276=T 10.970116=T 11.56973=T -9.4394=T -7.3784=T -9.854=T 1.2492=T -0.3603=T 0.24=T 9.66559=T 0.38604=T 4.2984830326=T 6.8038433374=T 0.260626686=T pbc="F F F"
N        0.87932933       1.91837349      -1.31639222
N        2.22429179       1.47727625      -1.23381501
C        2.97389528       1.75778318      -0.11543383
O        2.47087637       2.20371677       0.91610627
C        4.46954250       1.47620032      -0.25853732
C        5.26636866       2.75169885      -0.20743857
C        6.15096660       3.13108854      -1.13531434
H        0.78471524       2.63726846      -0.58524101
H        0.28710725       1.14131084      -1.00152210
H        2.69857137       1.43336444      -2.13358054
H        4.69313152       0.91444665      -1.17853870
H        4.73502704       0.83722515       0.59987986
H        5.07394267       3.38698077       0.66252266
H        6.36210387       2.51572590      -2.01394271
H        6.70072051       4.06859042      -1.04392244
