17
Properties=species:S:1:pos:R:3 -1768.6563257896248=T 13.239272=T 14.70522=T -9.3762=T -7.2107=T -9.014=T 1.295=T -0.0029=T 1.239=T 8.51873=T -0.6117=T 4.3554793968=T 10.7061663028=T 0.765246785=T pbc="F F F"
C        1.77350327      -0.65927644      -1.12659215
C        2.69574147      -0.25859698       0.03489878
C        3.02512435       1.20582950       0.03654030
C        4.25741852       1.72077308      -0.04843635
C        4.56384335       3.20129336      -0.03856193
C        5.32364400       3.63472066      -1.20968428
C        5.95709898       3.97641155      -2.18721938
H        1.52491823      -1.72918126      -1.08108414
H        2.25289831      -0.45901286      -2.09544841
H        0.82955702      -0.09426255      -1.09776714
H        3.62722057      -0.84579008      -0.00253053
H        2.19988421      -0.51755917       0.98738654
H        2.17016764       1.89257978       0.09932244
H        5.12260294       1.05367868      -0.13006204
H        5.14522294       3.45503768       0.86669707
H        3.62513704       3.77596371       0.02519923
H        6.50950716       4.28512132      -3.05089800
