13
Properties=species:S:1:pos:R:3 -1442.2100176127192=T 11.518613=T 12.4482=T -9.8266=T -7.6469=T -9.783=T -0.1687=T -1.9685=T -0.63=T 9.66526=T 1.27642=T 3.5612002836=T 6.6584697524=T 0.488872669=T pbc="F F F"
C        1.34798895      -0.57446772       0.58410544
C        2.42808196      -0.19179417      -0.10371583
C        3.18238819       1.07652463       0.15567988
C        4.69740670       0.90203968       0.20142318
O        5.27505667      -0.13309910      -0.10449537
C        5.43853889       2.08243327       0.61797558
C        6.04718691       3.07250742       0.97464761
H        0.82528782      -1.50181717       0.34701528
H        0.94889970       0.02339125       1.40772915
H        2.81233712      -0.82008629      -0.91167268
H        2.85287870       1.57087763       1.08378587
H        2.99594168       1.81502945      -0.64909494
H        6.60040670       3.93691112       1.28431683
