18
Properties=species:S:1:pos:R:3 -1740.8326130228477=T 11.049231=T 12.12508=T -9.3648=T -7.1307=T -10.703=T 0.7989=T -0.1856=T 2.69=T 10.07574=T -2.37052=T 8.5819265634=T 10.4972374942=T 0.080822181=T pbc="F F F"
C        0.83205311      -0.12989959       0.15700948
C        2.34204715      -0.02657341      -0.01962700
C        2.76388331      -0.03720924      -1.49501574
N        2.22784338       1.12383149      -2.21904109
C        3.06762616       1.07654763       0.78750766
O        4.00364450       0.10846940       1.35305532
C        3.21042272      -0.99119317       0.82499911
H        0.56087974      -0.15943978       1.22223411
H        0.43780932      -1.04323106      -0.31714790
H        0.31910005       0.73599616      -0.28848927
H        2.47649243      -1.01740779      -1.93226539
H        3.86336177       0.02037820      -1.53784357
H        1.23926791       0.98395005      -2.43894442
H        2.70594188       1.22931281      -3.11534575
H        2.45109292       1.54498731       1.57540778
H        3.57448565       1.85668367       0.19933226
H        3.82955613      -1.71859433       0.27201806
H        2.65776188      -1.51507835       1.62624636
