11
Properties=species:S:1:pos:R:3 -1194.7737630120328=T 8.376666=T 9.11073=T -10.7265=T -8.6739=T -11.513=T -0.6314=T -2.656=T -1.354=T 10.49234=T 1.79135=T 3.4169673698=T 11.9684057758=T 0.16882927=T pbc="F F F"
C        0.98176473      -0.08449163       0.14930024
C        2.48860460       0.06275375      -0.11687748
C        2.95422875       1.49588096      -0.04945037
O        3.47853890       2.11773773      -0.95571382
C        2.72786140       2.16813650       1.25502283
N        2.55892082       2.69470923       2.28345585
H        0.70110558      -1.14485790       0.12142495
H        0.39440033       0.44494563      -0.61281183
H        0.70521365       0.31175237       1.13578355
H        2.76732115      -0.31989834      -1.10759895
H        3.05370009      -0.50244831       0.64421502
