15
Properties=species:S:1:pos:R:3 -1490.2433665297835=T 11.441585=T 11.62628=T -8.7835=T -6.8359=T -10.073=T 0.3227=T -1.3698=T -0.452=T 9.52141=T 0.98604=T 4.0564623606=T 5.8675506598=T 0.316284969=T pbc="F F F"
C        3.02574021       0.25458179       2.56428201
N        2.58693533       1.17966814       1.50368771
N        3.19926844       0.86434634       0.26927436
C        4.18621664       1.69541781      -0.22494663
O        4.68830336       2.58546205       0.47023499
C        4.57130082       1.40321861      -1.63274167
C        5.50630318       2.12883852      -2.25833690
H        2.59547120       0.60796698       3.51127076
H        4.12285741       0.19128581       2.66413686
H        2.62653048      -0.74909118       2.36369924
H        2.95350857       2.11682682       1.72250142
H        2.58777579       0.39098364      -0.39421687
H        4.07549419       0.56859073      -2.13808679
H        5.99184711       2.95423324      -1.73415755
H        5.80236728       1.91690070      -3.28552096
