14
Properties=species:S:1:pos:R:3 -1443.992439574025=T 11.781923=T 11.86295=T -8.0244=T -6.146=T -8.438=T 0.5265=T -0.5636=T 0.16=T 7.80196=T 0.4006=T 4.474840719=T 0.316928185=T pbc="F F F"
C        1.15001932      -0.39947873       0.25305306
N        2.52275581      -0.19051356      -0.20566309
C        3.13425316       1.04566792      -0.14445064
N        2.29848627       2.13733356      -0.28680463
C        4.49275764       1.17625957       0.06454280
C        5.12088570       2.42681022      -0.06649994
N        5.60025383       3.49498430      -0.18135264
H        0.93971913      -1.47467305       0.21598569
H        0.42718970       0.09133349      -0.41321194
H        0.98115888      -0.03517672       1.28026277
H        3.15868548      -0.95674697      -0.00409116
H        1.54576423       2.03674328      -0.96400869
H        2.79610386       3.02244853      -0.37601403
H        5.09341700       0.31208816       0.34433243
