7
Properties=species:S:1:pos:R:3 -691.7884400593227=T 4.584432=T 4.66253=T -9.948=T -7.564=T -11.103=T 1.3801=T -0.8793=T -0.071=T 10.23465=T 0.60414=T 3.6771395922=T 18.476021762=T 0.432603359=T pbc="F F F"
C        0.99247987       0.01741937      -0.01355008
C        2.49414341       0.06610944       0.00915377
O        3.17309403       0.89062911      -0.57434571
H        0.66535275      -0.96243285      -0.39615644
H        0.57967416       0.82299921      -0.63114005
H        0.60911841       0.09008858       1.01672297
H        2.98212737      -0.73830286       0.62150554
