16
Properties=species:S:1:pos:R:3 -1516.9373440884142=T 10.25403=T 10.93511=T -8.3764=T -6.2266=T -9.705=T 0.7954=T -0.1834=T 3.097=T 9.34332=T -2.75346=T 7.8430567936=T 11.183661186=T 0.154223996=T pbc="F F F"
C        0.97886906      -0.11026055      -0.13236044
C        2.48586889      -0.05134454       0.01728344
N        3.04254443      -0.13530152       1.35635595
C        3.35317726      -0.68870522      -1.05637810
C        3.30111608       0.81366376      -0.95074136
N        4.49174975       1.53517592      -0.55707356
H        0.67288222       0.02541023      -1.18086549
H        0.49218050       0.68107885       0.46123040
H        0.57968472      -1.08045898       0.20821137
H        2.87854656      -1.06494969       1.75247279
H        2.57422402       0.53436741       1.97388067
H        2.86451522      -1.17891655      -1.89972206
H        4.27519344      -1.16453919      -0.71662462
H        2.72730600       1.33135097      -1.72434718
H        4.85976215       1.08319768       0.28815013
H        4.22882969       2.48288142      -0.26879195
