16
Properties=species:S:1:pos:R:3 -1631.567448401629=T 10.624431=T 11.95623=T -10.5566=T -8.342=T -11.752=T 0.6566=T -0.3994=T 1.494=T 11.3214=T -1.11138=T 5.3759833656=T 11.7232110622=T 0.156907327=T pbc="F F F"
C        0.96099583      -0.34796241      -0.04422942
C        2.45826883      -0.05927323      -0.05536010
O        3.10715706      -0.66012845      -1.19195491
C        2.75650524       1.44501201       0.01046923
C        4.26414238       1.75330912       0.09460603
C        4.84476977       1.36684023       1.37789280
N        5.28809664       1.05983484       2.41253792
H        0.49267653       0.02634724       0.87741004
H        0.78160290      -1.42922147      -0.10896291
H        0.45928715       0.14033986      -0.89626355
H        2.92903314      -0.55076491       0.81256619
H        2.58534526      -0.43070638      -1.98281361
H        2.23750306       1.88930076       0.87386595
H        2.35408928       1.93134582      -0.89429814
H        4.45062699       2.82749772      -0.05418544
H        4.79296994       1.20970925      -0.70394008
