15
Properties=species:S:1:pos:R:3 -1538.0335968649642=T 10.639744=T 11.04096=T -8.2029=T -6.1782=T -8.922=T 1.1233=T -0.192=T 0.79=T 8.46075=T -0.17009=T 5.0730979662=T 10.9015434416=T 0.122829106=T pbc="F F F"
C        1.80168038      -0.24949452       0.26521656
C        0.90763103      -1.50074304       0.51697433
C       -0.17113986      -0.91243276      -0.45781147
C       -1.46444801      -0.44049647       0.14216321
N       -1.46044914       0.80261015       0.49896411
N       -0.19150652       1.34256667       0.28365058
C        0.64673878       0.42023290      -0.52264723
H        2.67298707      -0.46782709      -0.36855280
H        2.13192374       0.30515312       1.15373492
H        1.33960865      -2.46309654       0.21154343
H        0.54496524      -1.58921338       1.54982873
H       -0.29742843      -1.48518349      -1.38749943
H       -2.35898249      -1.04286830       0.30044565
H       -0.27572345       2.29775025      -0.06194278
H        0.89840301       0.85082251      -1.50465782
