12
Properties=species:S:1:pos:R:3 -1388.7715510028936=T 13.681173=T 13.92297=T -9.2283=T -7.3178=T -8.862=T -0.6691=T -2.2722=T -0.667=T 8.38844=T 1.18495=T 3.6528879306=T 10.7977671596=T 0.828347816=T pbc="F F F"
C        0.93327211      -0.03412930       0.00006808
C        2.38275039       0.01130050       0.00022185
C        3.60283783       0.05846687       0.00021665
C        5.01020799       0.04861600       0.00020028
C        5.78375108       1.16698573      -0.00008537
C        7.20003520       1.11632319      -0.00014080
N        8.37153126       1.10879031      -0.00021257
H        0.50153685       0.97684622       0.01205610
H        0.55898565      -0.57627325       0.88147307
H        0.55869881      -0.55509612      -0.89392672
H        5.50141487      -0.92959690       0.00038057
H        5.32832796       2.15928673      -0.00027113
