16
Properties=species:S:1:pos:R:3 -1597.221804568203=T 9.917648=T 10.76954=T -9.5=T -7.4105=T -10.824=T 0.5606=T -0.4623=T 0.274=T 10.07327=T 0.37078=T 4.307211647=T 7.7387473718=T 0.095996718=T pbc="F F F"
C        0.85780556      -0.01013993       0.05298758
C        2.38798736       0.01917382      -0.03480383
C        3.02222715      -0.80409259       1.09562896
N        2.89271830      -0.47153249      -1.34650326
C        2.88154452       1.49208189       0.13664621
O        3.76975685       1.86948995      -0.80332300
O        2.51681536       2.21212103       1.04473164
H        0.40461781       0.54043947      -0.78508214
H        0.52210397       0.46657172       0.98257869
H        0.49432692      -1.04794806       0.02998149
H        2.76401378      -0.36669613       2.06795181
H        4.11839096      -0.81803868       1.00758871
H        2.65041940      -1.83961623       1.06584681
H        2.14728961      -0.47101322      -2.04662271
H        3.24241627      -1.42863241      -1.27457129
H        3.82514617       1.05179186      -1.38869566
