14
Properties=species:S:1:pos:R:3 -1368.0659246004875=T 8.876259=T 9.91868=T -9.4112=T -7.1859=T -11.096=T 0.9869=T 0.024=T 3.233=T 10.73038=T -3.12322=T 8.8793565788=T 11.0382380066=T 0.222167699=T pbc="F F F"
C        2.40871985      -0.89630157      -0.91758723
O        2.02685730       0.28581169      -0.21414451
C        3.12833812       1.10907109       0.05821977
C        3.64477996       2.06630648      -1.00738600
C        2.86431854       2.56497418       0.19847222
O        3.52676064       3.22592785       1.25283757
H        1.49032966      -1.46899560      -1.09610180
H        3.10843285      -1.51022594      -0.32156936
H        2.88529265      -0.65452980      -1.88441261
H        3.87899407       0.68348549       0.73654503
H        3.13043052       2.08453648      -1.96911536
H        4.71940961       2.25086071      -1.03235375
H        1.83088266       2.87795145       0.01272107
H        3.73406357       4.12761749       0.94926496
