19
Properties=species:S:1:pos:R:3 -1814.5139230403513=T 12.414185=T 13.12853=T -8.9147=T -6.8008=T -9.486=T 0.8659=T -0.1704=T 1.389=T 8.93505=T -0.80542=T 6.6527911936=T 0.415806926=T pbc="F F F"
C        3.09578139      -1.30620631      -0.78012358
C        2.56752413      -0.26302112       0.20939658
N        2.59292056      -0.68959318       1.62277673
C        3.29137532       1.11628984       0.08652725
N        2.65282993       2.17100668       0.89393131
C        4.74523325       1.02796017       0.48249308
C        5.77890449       1.01540329      -0.36555126
H        3.02482375      -0.94764247      -1.81952192
H        2.51936646      -2.24063283      -0.70757109
H        4.15296934      -1.53689546      -0.57934468
H        1.50866378      -0.05696732      -0.03029099
H        3.49903271      -1.11938329       1.83289299
H        1.89499207      -1.41973127       1.77840389
H        3.24158201       1.42084828      -0.97287805
H        2.45638065       1.76152591       1.81551922
H        1.73892954       2.39420116       0.48975909
H        4.93547992       0.97952921       1.56128918
H        5.63130026       1.08555370      -1.44684571
H        6.80850047       0.94802502      -0.01026205
