18
Properties=species:S:1:pos:R:3 -1783.7782188696738=T 12.010742=T 13.47418=T -8.9185=T -6.8851=T -10.38=T 1.0006=T 0.1473=T 3.426=T 9.72579=T -3.29022=T 8.6617735474=T 10.9131485312=T 0.298480141=T pbc="F F F"
C        1.08430622       0.33825702      -0.30925275
C        2.54381171       0.02079042      -0.07800365
C        3.21441231      -1.12408280      -0.81096929
C        3.57385656       0.30480346      -1.14231379
N        4.87145847       0.77818505      -0.72050372
C        5.83791867       1.01980245      -1.80025860
C        5.19110279       2.16370055      -1.09103360
H        0.85406186       1.38293577      -0.04833784
H        0.43410690      -0.31112009       0.29722905
H        0.80760453       0.18843935      -1.36395030
H        2.90824695       0.18293991       0.93969478
H        2.62560626      -1.68478398      -1.53910624
H        3.96524025      -1.70148046      -0.27115424
H        3.19557625       0.70233835      -2.09834252
H        5.51219899       0.82332556      -2.82714341
H        6.87192297       0.74543641      -1.57885980
H        5.74613720       2.73611751      -0.34422936
H        4.43496110       2.72915551      -1.64590472
