15
Properties=species:S:1:pos:R:3 -1567.5925147838589=T 11.267358=T 11.63929=T -7.9196=T -5.9482=T -8.19=T 0.7125=T -0.218=T 0.887=T 7.73115=T -0.31655=T 4.4283211718=T 6.8839258948=T 0.233596498=T pbc="F F F"
C        0.98485304      -0.12407943       0.04430864
C        2.46936564       0.06339165       0.03749313
C        3.12443320       1.22190163      -0.15466068
C        4.63157896       1.24996355      -0.11269974
N        5.25021294      -0.03743285      -0.48546881
C        4.55223244      -1.08544077      -0.26658209
N        3.24187899      -1.10971411       0.22667908
H        0.47590892       0.83685900      -0.09574206
H        0.64538851      -0.55460519       1.00013038
H        0.66099529      -0.80607704      -0.75932347
H        2.56425782       2.13551677      -0.35597385
H        4.99794072       1.51730515       0.89953147
H        5.02782708       2.02715912      -0.78580215
H        4.97371796      -2.07446776      -0.48204273
H        2.74904849      -1.99521972       0.13294288
