15
Properties=species:S:1:pos:R:3 -1536.847480539268=T 11.282817=T 11.68479=T -8.4068=T -6.3797=T -9.151=T 1.2017=T -0.2616=T 0.693=T 8.67217=T -0.07107=T 5.1146828706=T 6.8089639592=T 0.298395802=T pbc="F F F"
C        1.71876220      -0.74360590      -0.94905078
C        2.09180678       0.13280399      -0.01133718
C        3.11092205       1.22315120      -0.17554951
C        3.52740926       1.61835062      -1.60367292
C        3.81317938       3.08723931      -1.39525135
N        3.30968298       3.56100895      -0.30437218
N        2.62220628       2.53831318       0.34674930
H        0.98331437      -1.51941819      -0.73368961
H        2.13050081      -0.72270486      -1.96009873
H        1.65383339       0.05652477       0.99006053
H        4.02460432       0.93293017       0.38825458
H        2.68748467       1.49346583      -2.31259011
H        4.38145756       1.04441541      -1.98505937
H        4.30738446       3.75206122      -2.10285424
H        2.70100148       2.66071431       1.35711157
