16
Properties=species:S:1:pos:R:3 -1622.0600545147663=T 11.12395=T 12.15903=T -9.5843=T -7.3284=T -9.494=T 1.4519=T 0.1276=T 1.358=T 8.9615=T -0.78491=T 6.6638631434=T 0.484916166=T pbc="F F F"
C        1.24438957      -0.77166158       0.06093056
C        2.24368032       0.06029912      -0.25390217
C        3.18696400       0.69053933       0.73247730
C        4.64381944       0.36870423       0.44180808
C        5.41721595       1.19019331      -0.56389085
C        5.73731869       1.29806211       0.91062719
H        0.59542168      -1.20219651      -0.70313199
H        1.04031250      -1.04750041       1.09932341
H        2.42102201       0.30791079      -1.30728352
H        2.92398860       0.36971133       1.75447369
H        3.06357029       1.78926554       0.70459688
H        4.88028694      -0.69876887       0.46414245
H        4.90248465       2.03234952      -1.03069884
H        6.13226155       0.68292131      -1.21228168
H        6.66949197       0.86090650       1.26981336
H        5.43585184       2.21005430       1.42938611
