15
Properties=species:S:1:pos:R:3 -1524.5514879728348=T 11.182022=T 12.80047=T -9.7534=T -7.5186=T -9.588=T 0.8296=T -0.3699=T 2.103=T 9.14141=T -1.70516=T 4.2059646794=T 9.8966121144=T 0.581670734=T pbc="F F F"
C        0.96786143      -0.06473411       0.01820484
C        2.50099113      -0.01836744      -0.03362613
O        3.01909296      -0.74243359      -1.16838491
C        2.99455713       1.35967394       0.00494619
C        3.37021205       2.51653321      -0.01057988
C        3.86944042       3.88272426      -0.00398368
O        2.84987694       4.77998242      -0.47881213
H        0.59634961       0.39577768       0.94399274
H        0.63673399      -1.11045233      -0.02359301
H        0.53751183       0.48223076      -0.83257006
H        2.90450729      -0.56211247       0.83749353
H        2.86560554      -0.18574547      -1.95394383
H        4.77237261       3.93657849      -0.64213000
H        4.17825499       4.14422916       1.02629375
H        3.22526209       5.67748549      -0.45163743
