16
Properties=species:S:1:pos:R:3 -1525.9550482264638=T 10.925255=T 11.74144=T -9.4679=T -7.4075=T -10.895=T 1.3746=T -0.5617=T 0.267=T 10.47243=T 0.24181=T 5.332885832=T 6.6058872898=T 0.452192562=T pbc="F F F"
O        0.74279794       0.05839226      -0.07680775
C        2.16122455      -0.15696086      -0.11656376
C        2.82913675       1.20852518      -0.21391707
C        4.34459062       1.15122471      -0.14927253
O        4.81426704       0.45569232      -1.32744762
N        6.21195175       0.34901468      -1.26900290
C        6.67984785      -0.23840613      -2.30762619
H        0.30745167      -0.80988081      -0.09839170
H        2.44383625      -0.77926903      -0.98332045
H        2.50670260      -0.67382221       0.80012822
H        2.47558870       1.83307081       0.62181558
H        2.51148143       1.70647390      -1.14325694
H        4.69388811       0.61120223       0.74684927
H        4.77623972       2.16458881      -0.13448037
H        7.76212381      -0.36391775      -2.33889212
H        6.05054120      -0.60094810      -3.12889366
