15
Properties=species:S:1:pos:R:3 -1516.8162499950815=T 10.99863=T 11.61201=T -9.2623=T -7.264=T -10.047=T 0.865=T -0.8855=T -0.186=T 10.11069=T 0.65048=T 4.156506664=T 5.5278042226=T 0.247102706=T pbc="F F F"
C        1.31971935      -0.28621111       0.40897741
N        2.55825380       0.45121744       0.22265878
C        2.48868305       1.68317544      -0.11875727
C        1.22708282       2.48078536      -0.35311685
N        3.68125790       2.41284210      -0.30229201
C        4.97052613       1.93041271      -0.14557787
O        5.95907489       2.62921090      -0.31923395
H        1.55473727      -1.29118480       0.78214855
H        0.76182871      -0.40584203      -0.53748642
H        0.63792238       0.19199691       1.13522779
H        0.58612983       1.96902234      -1.08486774
H        1.42705973       3.49490713      -0.71956058
H        0.65111312       2.55993762       0.58079416
H        3.61669252       3.39277765      -0.57181827
H        4.98957850       0.86380234       0.14757427
