20
Properties=species:S:1:pos:R:3 -1897.055965582976=T 11.741745=T 12.99997=T -9.4239=T -7.2665=T -10.758=T 0.7538=T -0.2449=T 2.781=T 10.08888=T -2.45428=T 8.6290784392=T 10.3708957602=T 0.102606139=T pbc="F F F"
C        0.99772649      -0.03503859       0.22624446
C        2.48044196      -0.03761681      -0.15297879
C        3.06211672       1.33899113      -0.51429283
C        2.33350406       1.98043639      -1.70815635
O        2.93490089       2.18386008       0.64108971
C        4.57264053       1.19029655      -0.81962237
N        5.21331455       2.51826438      -0.82001116
H        0.68905849      -1.03018429       0.57692413
H        0.35295371       0.22624797      -0.62527800
H        0.80676762       0.68545298       1.03333521
H        2.65264721      -0.72418337      -1.00006793
H        3.06866715      -0.42292939       0.69609295
H        2.36649662       1.33364578      -2.59904687
H        2.78640096       2.95002906      -1.96359643
H        1.28366674       2.17258445      -1.45310857
H        3.66330325       2.83563588       0.52638979
H        4.71419329       0.62401300      -1.75906304
H        5.02342754       0.60510610      -0.00374669
H        5.15720690       2.95608789      -1.74113475
H        6.20388532       2.44341082      -0.58887245
