15
Properties=species:S:1:pos:R:3 -1569.9061890093533=T 11.769429=T 12.81798=T -8.8809=T -6.8159=T -9.189=T 0.9333=T -0.0225=T 1.094=T 8.60564=T -0.52983=T 4.3701593392=T 10.7300212092=T 0.812320988=T pbc="F F F"
C        1.60104480      -0.01929366      -0.54283028
O        2.97384546       0.36576822      -0.45298617
C        3.22486265       1.64205208      -0.03715490
C        2.30842275       2.58338792       0.24730033
C        4.72006664       1.87708468       0.04940615
C        5.37307081       1.11044792       1.10750593
C        5.91982476       0.48482753       1.99141980
H        1.60261894      -1.06642555      -0.86447789
H        1.06529013       0.59666386      -1.28345882
H        1.10330210       0.07034921       0.43634908
H        1.23722114       2.41104114       0.17421280
H        2.63903504       3.56602138       0.57584010
H        4.89914814       2.95091111       0.20499200
H        5.17308655       1.61069611      -0.92106190
H        6.39827009      -0.06842196       2.77315376
