12
Properties=species:S:1:pos:R:3 -1319.968181753278=T 11.188646=T 12.09559=T -8.669=T -6.7097=T -8.779=T 1.2947=T -0.2173=T 0.038=T 8.23393=T 0.56268=T 3.8953549522=T 10.4100257418=T 0.639753707=T pbc="F F F"
C        0.91782400       0.02623242      -0.00845580
C        2.41128237       0.00451480      -0.00116110
C        3.27821898       1.06256962       0.00453823
O        4.58679583       0.64342680       0.00996912
C        4.56352547      -0.72481782       0.00794562
C        3.26615709      -1.15323957       0.00115346
Cl       2.73188899      -2.80371754      -0.00348879
H        0.54041492       1.05644971      -0.00149908
H        0.51017072      -0.49520884       0.86997193
H        0.51882928      -0.47996516      -0.89974733
H        3.12816233       2.13679413       0.00547083
H        5.51847002      -1.23561853       0.01187289
