22
Properties=species:S:1:pos:R:3 -2083.9794421752144=T 12.861077=T 14.1146=T -9.1366=T -6.9048=T -10.553=T 0.8633=T -0.0833=T 2.859=T 9.89672=T -2.50506=T 8.599792946=T 10.7226688394=T 0.151427866=T pbc="F F F"
C        2.94100220      -0.90139904      -1.10939227
C        2.51367917       0.05136983       0.01017237
C        3.04214012       1.50576452      -0.07595692
C        2.56924911       2.19202634      -1.36899583
C        2.48878811       2.29069903       1.12796322
C        4.58964391       1.54742075      -0.05280551
N        5.16427446       0.90186838       1.13830209
H        2.48524500      -1.89110399      -0.96039917
H        4.03092071      -1.04830774      -1.12467072
H        2.63042613      -0.54785181      -2.10383800
H        2.84504136      -0.36701273       0.97348458
H        1.41100425       0.09803763       0.04534899
H        2.96815936       1.69782326      -2.26712842
H        2.89481479       3.24365743      -1.39711096
H        1.47049265       2.18048293      -1.43732109
H        2.76518248       1.81603664       2.08187965
H        1.38919905       2.33199170       1.09208968
H        2.86188936       3.32759741       1.13339385
H        4.89818265       2.60721257      -0.17623158
H        4.97124631       1.01019022      -0.93585619
H        5.05489276       1.50719930       1.95515857
H        6.17045607       0.77923737       1.01242364
