14
Properties=species:S:1:pos:R:3 -1468.1858271912329=T 10.603844=T 11.57042=T -9.7899=T -7.5043=T -9.692=T 0.9717=T 0.0348=T 2.369=T 9.26311=T -1.94385=T 4.3427708318=T 10.327351877=T 0.513042055=T pbc="F F F"
C        0.90838367      -0.02291442       0.00864825
C        2.12381849      -0.00664935       0.00871759
C        3.57114052       0.01028125       0.04229786
C        4.30871633       1.07613837       0.91943716
C        5.36150262      -0.00634509       1.27212529
C        4.33538471      -1.09011458       0.85136815
H       -0.16206616      -0.03742408       0.00507794
H        3.96605165       0.04749476      -0.98646749
H        3.69480100       1.34582338       1.78971901
H        4.64328768       1.99162460       0.41444573
H        6.22085334       0.02575526       0.58670054
H        5.73466710      -0.03417932       2.30390017
H        4.69186025      -1.96362485       0.29015935
H        3.72887880      -1.42879594       1.70252044
