17
Properties=species:S:1:pos:R:3 -1728.6465365363335=T 11.594717=T 12.72517=T -9.3831=T -7.2034=T -9.457=T 1.154=T -0.0262=T 1.364=T 8.93453=T -0.79546=T 6.6380368596=T 0.445227522=T pbc="F F F"
C        0.89573487      -0.12381405       0.23366740
C        2.26414471       0.45898647      -0.04494198
C        3.01196422       1.15095935       1.11388088
C        4.10930549       0.07988958       0.87288271
O        3.30310332      -0.57348846      -0.15027144
C        5.43604447       0.57524110       0.38870452
C        5.89270087       0.43231209      -0.85966602
H        0.58203446      -0.77998498      -0.59085096
H        0.15210091       0.68208495       0.33037882
H        0.90153539      -0.71217079       1.16274858
H        2.24445972       1.06094740      -0.97159699
H        2.50611730       1.07375866       2.08506238
H        3.32136817       2.18751933       0.93449349
H        4.26323590      -0.59751255       1.73442082
H        6.04352698       1.07757750       1.15093549
H        5.29043619      -0.08082377      -1.61139773
H        6.87122702       0.81285817      -1.15347997
