16
Properties=species:S:1:pos:R:3 -1593.0203398990034=T 11.84326=T 13.58682=T -9.3207=T -7.0388=T -9.325=T 0.8601=T -0.1758=T 2.257=T 8.91951=T -1.88023=T 4.1674298306=T 10.2771251484=T 0.759800196=T pbc="F F F"
N        0.96637975      -0.05150985       0.02688745
C        2.44306281      -0.02182297      -0.02259393
C        2.95350527       1.34641354       0.00035313
C        3.39580077       2.47945656      -0.00812903
C        3.87008903       3.85708132       0.00954195
C        2.70813185       4.87179277      -0.00367347
O        3.16889434       6.22345568      -0.02706923
H        0.65189781      -1.02109819      -0.06352179
H        0.59548675       0.45007270      -0.78460842
H        2.87856555      -0.53762815      -0.90346143
H        2.81797841      -0.55747133       0.86644202
H        4.51963484       4.05731875      -0.85830937
H        4.48577537       4.02510379       0.91113268
H        2.04075684       4.68184488       0.85475976
H        2.11692512       4.73933936      -0.92064937
H        3.54415550       6.42894113       0.84678902
