14
Properties=species:S:1:pos:R:3 -1409.1402756366574=T 9.152796=T 9.99652=T -8.6743=T -6.4353=T -9.941=T 0.8351=T -0.1682=T 3.037=T 9.69252=T -2.7754=T 7.8517978066=T 10.193880948=T 0.14715716=T pbc="F F F"
N        0.90281228      -0.06917238      -0.46021695
C        2.22692882      -0.00066557       0.09552263
C        3.36076140      -0.83514599      -0.50349736
O        3.19885691      -1.41145862      -1.78125996
C        2.82466480      -0.35565135      -2.67775589
O        3.20219771       0.89043713      -2.07502686
C        3.36302250       0.65307536      -0.69341655
H        0.38316054       0.78964455      -0.26975005
H        0.37954736      -0.84977388      -0.05931424
H        2.35317035       0.13765921       1.18149766
H        4.04806142      -1.40052491       0.12505645
H        3.37926451      -0.47703621      -3.62264197
H        1.73385327      -0.37296699      -2.82600319
H        4.05235814       1.35610964      -0.22685373
