11
Properties=species:S:1:pos:R:3 -1119.1481868705446=T 8.159373=T 8.92274=T -10.2506=T -7.7578=T -9.956=T 0.9406=T -0.1072=T 2.252=T 9.5803=T -1.89119=T 4.3750691848=T 10.6172435436=T 0.781954136=T pbc="F F F"
O        0.93127735       0.09808867       0.01487064
C        2.35884745      -0.01138092       0.01606605
C        2.91363867       1.41697188       0.00019497
C        4.36926175       1.44676201      -0.00012074
C        5.58314303       1.44439631      -0.00010241
H        0.56075990      -0.80001675       0.02492390
H        2.72294529      -0.55725213      -0.87249824
H        2.72297332      -0.53738177       0.91652313
H        2.52399292       1.95729471       0.87838880
H        2.52400064       1.93766659      -0.88977769
H        6.65385969       1.45510141      -0.00021840
