20
Properties=species:S:1:pos:R:3 -1940.2942638076756=T 12.407224=T 13.8146=T -9.1829=T -6.9153=T -10.574=T 0.8838=T -0.0488=T 3.023=T 10.35509=T -2.66427=T 8.5917586532=T 11.058435326=T 0.218992321=T pbc="F F F"
C        1.08246565      -0.00802527      -0.07304578
C        2.59096278       0.09982565      -0.11817690
C        3.39676169      -0.55272592      -1.22346063
C        3.33208906       0.96312874      -1.12372043
C        2.56833705       1.74147963      -2.17900705
C        4.58597716       1.66180512      -0.61643747
N        5.55751655       1.86974027      -1.70317935
H        0.63469542       0.83433419       0.47716462
H        0.77567378      -0.93651662       0.43242630
H        0.63923085      -0.02194533      -1.07806287
H        3.06173958       0.06195887       0.87000701
H        2.84128522      -1.02699515      -2.03559512
H        4.32704091      -1.05992058      -0.95731221
H        1.75523201       1.15318629      -2.62348975
H        3.25341776       2.04401071      -2.98336947
H        2.12905856       2.65726705      -1.75040747
H        4.98838074       1.08168330       0.23991566
H        4.31025588       2.65667344      -0.22438739
H        5.91081684       0.96314688      -2.02170602
H        6.36588252       2.38970873      -1.35559566
