15
Properties=species:S:1:pos:R:3 -1530.4550269525=T 12.453483=T 13.87888=T -8.7548=T -6.7808=T -9.382=T 0.6905=T -0.2087=T 0.955=T 8.81089=T -0.39811=T 4.1790473188=T 8.8010470212=T 0.444548864=T pbc="F F F"
C        0.93422867      -0.11745426       0.09763322
C        2.38230795      -0.03281902      -0.01219543
C        3.59339474       0.03597274      -0.08823373
C        5.04464656       0.13071895      -0.21560250
N        5.55489841       1.44588302       0.17712438
C        6.82080086       1.61946526       0.69476830
N        7.50190243       2.69834251       0.85214553
H        0.48524437       0.88542911       0.15074048
H        0.63556524      -0.66664905       1.00267407
H        0.49898934      -0.63352256      -0.77072325
H        5.33576675      -0.12668970      -1.25264494
H        5.52648743      -0.61571243       0.43709382
H        5.11296966       2.24809014      -0.26735100
H        7.26161428       0.67365463       1.04682537
H        6.99807331       3.52046067       0.48471567
