15
Properties=species:S:1:pos:R:3 -1498.546998136195=T 11.544702=T 11.72979=T -8.6028=T -6.7027=T -9.275=T 0.9531=T -0.6548=T -0.092=T 8.68449=T 0.54921=T 4.612093221=T 5.3173627848=T 0.476000805=T pbc="F F F"
C        4.37431268      -0.46680082      -0.85431100
O        3.24872567      -0.02856700      -0.08254708
C        3.22048300       1.28146122       0.26374030
C        4.13720796       2.23570316      -0.01251657
C        4.01241129       3.63045493       0.44728870
N        2.73398695       4.04681151       0.82773467
N        4.99561113       4.46387019       0.57375619
H        4.21170286      -1.53304621      -1.04344147
H        5.31178491      -0.32633130      -0.29330208
H        4.42996642       0.07926581      -1.80932711
H        2.32825450       1.49466039       0.85607777
H        5.05096118       1.99695097      -0.55701593
H        1.97970409       3.75210952       0.21140841
H        2.71445756       5.04614335       1.02750945
H        5.88396979       3.99279428       0.36546575
