18
Properties=species:S:1:pos:R:3 -1818.7076948572146=T 12.313204=T 13.20864=T -9.0894=T -6.8776=T -9.126=T 0.9563=T -0.1475=T 1.441=T 8.49375=T -0.7769=T 6.3408796134=T 0.418892595=T pbc="F F F"
N        1.00253035       0.02824439      -0.12294020
C        2.46292415      -0.01187478       0.02658455
C        2.99723851       1.15513401       0.87355030
C        4.39197678       0.67951304       1.31461164
C        4.26914080      -0.83739492       1.41266317
C        5.18758790      -1.66500706       1.92531815
C        2.93151688      -1.24295786       0.82175712
H        0.68890937      -0.77020678      -0.68170704
H        0.73259112       0.86131781      -0.65323657
H        3.00011531      -0.00333459      -0.94665460
H        2.33108156       1.27508684       1.74372871
H        3.01610340       2.11021557       0.32805211
H        5.14522730       0.93533751       0.54995766
H        4.72767454       1.13562701       2.25702516
H        5.03920794      -2.74659990       1.93878052
H        6.11954579      -1.28788023       2.35179744
H        2.98988986      -2.16334884       0.22184920
H        2.19707843      -1.41654120       1.62917269
