16
Properties=species:S:1:pos:R:3 -1586.054378161224=T 11.392503=T 12.44149=T -9.515=T -7.3867=T -10.568=T 1.5661=T -0.1738=T 0.489=T 10.07197=T 0.12667=T 5.5199683074=T 10.113104069=T 0.221100496=T pbc="F F F"
O        0.89872321       0.65076407       0.94081563
N        1.87085747       0.80987396      -0.08368352
C        3.01220421       1.12093725       0.41014555
C        4.17989346       1.34392321      -0.50145457
C        4.77489050       2.73437685      -0.35369212
C        5.77976870       3.02075215       0.73917297
C        6.22312231       2.97394197      -0.70576098
H        0.10484146       0.42142705       0.42509798
H        3.14282127       1.24225156       1.49541687
H        3.85796782       1.16400430      -1.53851285
H        4.96227967       0.59884325      -0.26883511
H        4.08272632       3.54637012      -0.59071531
H        6.07620592       2.19170774       1.38467450
H        5.74244482       3.98956299       1.23759178
H        6.48692033       3.91091575      -1.19634401
H        6.81212252       2.11340779      -1.02781681
