17
Properties=species:S:1:pos:R:3 -1620.548025150222=T 11.374399=T 12.30867=T -8.1008=T -6.0873=T -9.305=T 0.8802=T -0.0791=T 0.852=T 8.85236=T -0.24634=T 5.0318850198=T 12.7574898756=T 0.246882897=T pbc="F F F"
C        1.42558546       0.05273259       0.06120232
C        2.45453324       1.16278832       0.13481611
O        3.75900046       0.55719104      -0.01748791
C        4.82717870       1.41031729       0.01597826
C        6.13934004       0.70044886      -0.12698717
N        4.64480137       2.67353290       0.16282585
N        5.80848509       3.46650339       0.24745344
H        0.41770618       0.47343543       0.18223761
H        1.58668167      -0.68803532       0.85653623
H        1.46879455      -0.46354498      -0.90774538
H        2.42031317       1.69744417       1.09745669
H        2.31440444       1.91363410      -0.65952355
H        6.00224846      -0.38066364      -0.01788615
H        6.84335371       1.06176602       0.63735925
H        6.59256815       0.88980843      -1.11388765
H        5.51601741       4.42749487       0.06860252
H        6.50725791       3.21580654      -0.46349047
