15
Properties=species:S:1:pos:R:3 -1507.5917012988177=T 10.388028=T 10.72893=T -8.1037=T -5.9966=T -8.693=T 0.981=T 0.0726=T 1.458=T 8.38695=T -0.83672=T 5.843956124=T 11.4653201822=T 0.258646552=T pbc="F F F"
C        1.19658714      -0.00536114       0.40659965
N        2.47723008      -0.00799303      -0.27313741
C        2.73685940      -1.19238412      -1.10663283
C        3.67795055      -0.66939222      -2.15691128
C        3.68632792       0.66883590      -2.14603351
C        2.75177946       1.18642758      -1.08729796
H        1.12122127       0.87668650       1.05950408
H        1.10945546      -0.89736704       1.04436221
H        0.32753941       0.00634587      -0.29056363
H        1.81161718      -1.59190455      -1.58904929
H        3.16069298      -2.01403996      -0.50205482
H        4.23280826      -1.31314030      -2.83893740
H        4.24931107       1.31657678      -2.81755678
H        3.18572180       1.99278495      -0.46949633
H        1.83165801       1.60520476      -1.56308469
