15
Properties=species:S:1:pos:R:3 -1574.1504042325369=T 12.833394=T 13.01691=T -8.0019=T -6.0069=T -8.188=T 1.0763=T -0.4008=T 0.573=T 7.75893=T 0.00520999999998=T 4.0158941414=T 5.6166029958=T 0.341643686=T pbc="F F F"
C        1.28951489      -0.42739057      -0.68897436
O        2.65371842      -0.22101409      -0.30929232
C        3.11009653       1.06441783      -0.15961114
C        2.13268351       2.19063607      -0.04724971
C        4.46018089       1.21362581      -0.07938291
C        5.11348497       2.44432607       0.13570909
C        5.71479680       3.49018029       0.31996496
H        1.15809810      -1.51486209      -0.72212022
H        1.08048494      -0.00954267      -1.68696013
H        0.58558365      -0.00314488       0.04326504
H        1.45257532       2.04790363       0.80706814
H        1.51301792       2.28949492      -0.95143611
H        2.68106484       3.12768865       0.09911220
H        5.07721927       0.31697832      -0.17841250
H        6.23763995       4.40936269       0.48396997
