15
Properties=species:S:1:pos:R:3 -1550.7306371234702=T 10.801482=T 11.64417=T -9.8302=T -7.6096=T -9.832=T 0.5598=T -1.4186=T -0.356=T 10.31867=T 1.00329=T 3.6917699402=T 6.6877676442=T 0.455764897=T pbc="F F F"
O        0.30392903      -0.70754010       0.25619230
C        1.67846966      -0.96238052       0.44054300
C        2.39759937      -1.22375169      -0.90555407
C        1.85545410      -2.43201688      -1.61227855
C        2.59341089      -3.48133702      -1.99049265
C        2.33907347       0.18170186       1.17611953
O        1.70981186       1.16536679       1.53012448
H        0.14756683       0.16504765       0.68125925
H        1.81933625      -1.86263314       1.07826898
H        3.47875735      -1.34496405      -0.72631378
H        2.25517623      -0.32579458      -1.53156760
H        0.77976534      -2.41978531      -1.81216701
H        3.67024538      -3.52132050      -1.80493301
H        2.14819140      -4.33434931      -2.50431692
H        3.43190284       0.08149680       1.37930602
