16
Properties=species:S:1:pos:R:3 -1680.7332478493356=T 11.995919=T 13.0265=T -9.9982=T -7.9775=T -9.827=T 0.2215=T -1.5266=T -0.131=T 9.29146=T 0.59853=T 5.0445439904=T 6.4934443864=T 0.346900468=T pbc="F F F"
C        1.29130250      -0.35607567      -0.52458017
C        2.79122706      -0.43589967      -0.23976693
C        3.40514768       0.94472785       0.04684910
C        4.89515047       0.90005517       0.30236730
C        5.47655488       1.23056891       1.47109493
C        5.71260815       0.45975702      -0.79226984
N        6.33912330       0.09987957      -1.71211646
H        0.87335719      -1.35302709      -0.72130865
H        1.08567166       0.27169829      -1.40480927
H        0.74260886       0.07364024       0.32738915
H        3.31079666      -0.89194717      -1.09771365
H        2.97805783      -1.09538762       0.62343209
H        2.91836702       1.40115090       0.92271553
H        3.21193620       1.60929983      -0.81269144
H        4.86975150       1.56852584       2.31195393
H        6.55568905       1.17423361       1.60902438
