9
Properties=species:S:1:pos:R:3 -1080.3074597572786=T 11.450817=T 11.59095=T -9.9624=T -8.1833=T -10.109=T -0.6055=T -2.2633=T -1.315=T 9.34805=T 1.88836=T 4.5805635812=T 6.496060491=T 0.278689965=T pbc="F F F"
N        0.91330431      -0.05240790      -0.00078919
C        2.07894516       0.02494851      -0.00004318
C        3.50968614       0.05899134       0.00083579
N        4.13741262       1.24170234       0.00209965
S        5.77764652       0.95482433       0.00282324
C        5.65320432      -0.76218045       0.00155309
C        4.32467169      -1.11333832       0.00047631
H        6.52746008      -1.40789428       0.00160395
H        3.93958918      -2.13024557      -0.00048966
