17
Properties=species:S:1:pos:R:3 -1749.7640989321978=T 11.638455=T 12.63522=T -8.8328=T -6.6339=T -8.729=T 0.9017=T -0.0108=T 1.375=T 8.21542=T -0.70837=T 5.8777795048=T 0.311633242=T pbc="F F F"
C        0.91183759       0.03833427      -0.20974750
C        2.39892988      -0.03533924       0.12706081
O        2.65934021      -1.21281948       0.93318292
C        3.42401205      -0.84491493       2.08816676
C        3.50463401       0.65932711       2.07324104
C        4.16127126       1.43059521       3.17065726
C        2.92588722       1.10558971       0.95111172
H        0.59451036      -0.88293378      -0.71702396
H        0.71245883       0.88657127      -0.88098389
H        0.31560632       0.16108672       0.70512179
H        2.97164094      -0.12826430      -0.82101860
H        4.43329836      -1.30492837       2.04374123
H        2.92631147      -1.23320829       2.99747598
H        4.13677326       2.51041411       2.97623763
H        5.21390758       1.12746036       3.29261997
H        3.66624857       1.24328916       4.13741244
H        2.84072207       2.14816048       0.64283440
