18
Properties=species:S:1:pos:R:3 -1783.3175862383503=T 12.446487=T 13.70728=T -9.2385=T -6.9259=T -9.754=T 0.9177=T -0.0142=T 2.363=T 9.33587=T -1.90797=T 4.337712203=T 10.5081606608=T 0.516123705=T pbc="F F F"
C        1.36877128      -0.18060568       1.02759007
C        2.50650431       0.00006887       0.00181123
C        2.12010445      -0.47538379      -1.42091251
C        0.96921340       0.28899551      -2.07545254
N        0.72192776      -0.25083828      -3.42327267
C        3.00735557       1.37639295       0.00237480
C        3.42584131       2.51702891       0.00728367
H        1.72223410       0.05032960       2.04111715
H        1.00990648      -1.21990493       1.01245745
H        0.52214709       0.48371070       0.80893483
H        3.34562783      -0.64196203       0.32579411
H        1.85688447      -1.54421372      -1.37516332
H        3.01222547      -0.39439833      -2.06460299
H        1.19832379       1.37268042      -2.05542112
H        0.04611570       0.14497095      -1.49168581
H        1.51870548      -0.03552995      -4.02955393
H       -0.08433022       0.21814428      -3.84187300
H        3.79746173       3.52114450       0.01512457
