20
Properties=species:S:1:pos:R:3 -1939.9908435107402=T 12.855826=T 13.75368=T -9.0425=T -6.9046=T -9.408=T 0.9079=T -0.1504=T 1.404=T 8.89518=T -0.81781=T 6.6141323588=T 0.443107044=T pbc="F F F"
C        0.87342138      -0.49463541       0.50226196
C        2.29833883      -0.30755990      -0.03460659
C        2.75954372      -1.53878400      -0.82192253
C        2.46239557       1.02590629      -0.83745905
N        3.85118541       1.41429000      -1.10849350
C        1.64440474       1.03563410      -2.10619126
C        2.06232497       1.46185064      -3.30355709
H        0.52560322       0.39849409       1.04399717
H        0.83005257      -1.34551502       1.19815134
H        0.15454737      -0.70094095      -0.30527529
H        2.96454739      -0.19562549       0.84171010
H        2.12410740      -1.70743491      -1.70493627
H        2.71216451      -2.44142766      -0.19518101
H        3.79836985      -1.43849434      -1.17101298
H        2.04222224       1.81758789      -0.18469450
H        4.30085145       0.70470751      -1.69474112
H        4.37593961       1.44186588      -0.23120432
H        0.61905676       0.66591487      -2.00555795
H        3.06631082       1.86685636      -3.44072588
H        1.40051221       1.43846005      -4.17058123
