13
Properties=species:S:1:pos:R:3 -1449.1698610395927=T 11.884544=T 12.31446=T -9.5643=T -7.7498=T -10.125=T -0.5305=T -2.2282=T -1.04=T 9.22834=T 1.73924=T 3.334913435=T 5.2058125806=T 0.446549425=T pbc="F F F"
C        0.89992909       0.01519068      -0.03827735
C        2.38757470       0.02036906      -0.12184572
C        3.17989043       1.06623502       0.18367969
C        4.65015751       1.04575478       0.09300253
O        5.34017047       2.02629195       0.38344051
C        5.29085297      -0.18557033      -0.35773881
C        5.88337675      -1.18095630      -0.72632952
H        0.55481065      -0.77799667       0.64441120
H        0.45933540      -0.21790582      -1.02106451
H        0.49912375       0.97636211       0.30792179
H        2.86728613      -0.90550616      -0.46011401
H        2.76639844       2.01888927       0.52733220
H        6.41929373      -2.05096760      -1.04952798
