13
Properties=species:S:1:pos:R:3 -1398.6022107219906=T 11.353583=T 10.61064=T -8.5278=T -6.7695=T -8.675=T -0.2982=T -1.9003=T -0.559=T 8.16223=T 1.40802=T 3.0639172348=T 5.973087543=T 0.27883968=T pbc="F F F"
C       -1.37112212       0.62752262       0.15066740
C       -1.43160566      -0.83660497      -0.00227994
C       -0.32991945      -1.60901389       0.26723408
C        0.94288941      -1.06234762       0.58395858
C        1.36074252       0.21480584       0.23857156
N        0.76316900       0.96271092      -0.75151112
N       -0.45959247       1.08528343      -0.98136983
H       -2.33816871       1.12340415       0.01692373
H       -0.89145803       0.92764308       1.09978950
H       -2.34514933      -1.29996296      -0.38040964
H       -0.42934618      -2.69703458       0.24077798
H        1.69895478      -1.72679904       1.01101781
H        2.37689624       0.53872299       0.47063991
