18
Properties=species:S:1:pos:R:3 -1785.0980542759783=T 11.672507=T 12.7583=T -8.637=T -6.5712=T -9.895=T 0.9411=T 0.0529=T 2.818=T 9.41598=T -2.50602=T 7.8487849468=T 11.7781492588=T 0.106902144=T pbc="F F F"
C       -1.74177934       0.59553201       0.27414152
N       -1.70993630      -0.85003157      -0.21688317
C       -0.21364826      -0.77715147       0.07963879
C        1.08805494      -1.19089257      -0.58620122
C        2.02356521      -0.03495861      -0.03224611
C        1.10996829       1.13638025       0.53175115
C       -0.22886692       0.72263775      -0.06986679
H       -2.45508384       1.24974668      -0.24561726
H       -1.95220587       0.59848395       1.35471055
H       -1.82195033      -0.80885729      -1.23988478
H       -0.14059951      -1.03111602       1.15523429
H        1.46460526      -2.18716585      -0.31490641
H        1.01384124      -1.13729633      -1.68365140
H        2.67917641      -0.42203594       0.75999252
H        2.67782142       0.33794474      -0.83222456
H        1.08506254       1.10960820       1.63182497
H        1.48069969       2.12419004       0.22438465
H       -0.19376462       0.93493201      -1.15632672
