20
Properties=species:S:1:pos:R:3 -1944.7968616929518=T 12.334055=T 13.41416=T -8.7073=T -6.6317=T -10.124=T 0.8585=T -0.082=T 2.807=T 9.56362=T -2.47561=T 8.1783273362=T 10.3963128902=T 0.09082205=T pbc="F F F"
C        0.89018845      -0.02194167       0.09881575
C        2.40924813       0.01662047      -0.02322954
C        2.83791478       0.08147559      -1.48944574
C        3.16315885       1.07285253       0.84565441
C        4.21378526      -0.00504370       1.22325405
C        3.20201862      -1.09072071       0.79355784
N        3.73809869      -2.31010632       0.21491918
H        0.57781016      -0.06797300       1.15337384
H        0.47204409      -0.90274629      -0.41601351
H        0.42663299       0.87164014      -0.34970000
H        3.93163507       0.13869957      -1.60258599
H        2.41266983       0.97426931      -1.97368115
H        2.48592223      -0.80005007      -2.04894823
H        2.56418220       1.38476310       1.71423059
H        3.52552334       1.97229715       0.32735419
H        5.08229719       0.01676419       0.54737829
H        4.58235310      -0.03740719       2.25721278
H        2.58352554      -1.37999732       1.66027509
H        4.23216083      -2.11007167      -0.65840624
H        2.99114064      -2.97160412      -0.00936563
