11
Properties=species:S:1:pos:R:3 -1277.6216707368308=T 12.338901=T 12.01242=T -9.1171=T -7.4264=T -9.042=T -0.5578=T -2.1895=T -1.348=T 8.48856=T 2.02577=T 3.3906203448=T 3.829121631=T 0.360118322=T pbc="F F F"
O        2.54398345      -1.20492066       0.04775013
C        2.08509385      -0.06939158      -0.00997537
C        2.87125992       1.15543887       0.00291382
C        2.40916691       2.46267388      -0.06065123
C        3.45110218       3.41870404      -0.02483194
C        4.69652149       2.82814920       0.06554922
S        4.61532277       1.10658061       0.10803936
H        0.98239693       0.10889023      -0.08129482
H        1.34945029       2.70781413      -0.13046356
H        3.29995722       4.49629675      -0.06326166
H        5.66567499       3.31856453       0.10998604
