18
Properties=species:S:1:pos:R:3 -1810.77528954767=T 12.417891=T 13.26841=T -7.9997=T -5.933=T -8.438=T 0.9077=T 0.0268=T 1.55=T 8.00115=T -0.86482=T 5.7324059198=T 0.24435941=T pbc="F F F"
C        1.22270888      -0.06823992       0.51029248
N        2.42853168       0.02259172      -0.28880653
C        2.76980775      -1.19449755      -1.04286418
C        3.54426134      -0.66057683      -2.21432506
C        3.38448234       0.66668550      -2.32808302
C        3.93694705       1.58836765      -3.36521693
C        2.47087221       1.15131051      -1.22637274
H        1.08755126       0.85637130       1.09088455
H        1.31010411      -0.89934604       1.22546575
H        0.30249087      -0.23092677      -0.09720896
H        1.86489822      -1.74690573      -1.39588321
H        3.34463853      -1.89696804      -0.41270799
H        4.12523827      -1.29249833      -2.88697769
H        4.56422206       2.37089696      -2.90762124
H        3.12802037       2.10927445      -3.90396264
H        4.54556637       1.04789706      -4.10224656
H        2.83875374       2.06723989      -0.72749968
H        1.46771493       1.40004416      -1.65443637
