16
Properties=species:S:1:pos:R:3 -1576.5058083481413=T 9.863563=T 11.06621=T -9.6075=T -7.5679=T -11.488=T 0.9035=T -0.0003=T 2.677=T 10.77707=T -2.38148=T 9.0283009606=T 10.6838240256=T 0.313913426=T pbc="F F F"
C        1.03706638       0.05687259      -0.13159804
C        2.53614121       0.18179879      -0.05714980
O        3.31692941      -0.44087169      -1.10511227
C        3.38401675       1.00629582      -0.95150774
C        2.80281506       1.80724033      -2.09570502
C        4.71401633       1.51184458      -0.43214375
H        0.56210284       0.75334172       0.57601445
H        0.73171341      -0.96232215       0.14715560
H        0.65194175       0.26082409      -1.13771239
H        2.94722942      -0.00131552       0.94699571
H        1.87179884       1.36971382      -2.47271852
H        3.52066995       1.84229609      -2.92893809
H        2.60422326       2.84312289      -1.78114587
H        5.08446029       0.87334506       0.38025068
H        4.62165455       2.54214558      -0.05640991
H        5.46294055       1.51292800      -1.23862504
