18
Properties=species:S:1:pos:R:3 -1741.207891851008=T 11.092387=T 12.40675=T -9.1835=T -6.9932=T -10.489=T 0.9285=T -0.0059=T 2.747=T 9.84617=T -2.42693=T 8.1988966136=T 11.685184556=T 0.195019335=T pbc="F F F"
C        2.94660213      -1.03917364      -0.98226864
C        2.43472828      -0.12648485       0.13623207
C        3.07693874       1.27981655       0.18481773
N        2.43413129       2.20001622       1.13118702
C        4.56364782       1.19438194       0.49327524
C        5.30028001       2.25622247       1.19427968
O        4.92189465       1.04011622       1.88714850
H        2.36747384      -1.97242769      -1.02115634
H        4.00052786      -1.31798613      -0.84098210
H        2.85674493      -0.55320080      -1.96644713
H        2.57952325      -0.60907024       1.11796560
H        1.34705132       0.01319443       0.01621584
H        2.99310052       1.72826334      -0.82425139
H        2.54206770       1.81875104       2.07681245
H        1.43053355       2.23642621       0.94246141
H        5.13751299       0.54576923      -0.17938777
H        4.75368468       3.14967928       1.50631143
H        6.37569644       2.36616642       1.01848641
