18
Properties=species:S:1:pos:R:3 -1734.4069548104521=T 11.303259=T 12.56096=T -8.6576=T -6.5324=T -10.14=T 0.8806=T -0.029=T 2.985=T 9.55881=T -2.71271=T 8.1147349168=T 11.512596044=T 0.122453019=T pbc="F F F"
C        2.02879564      -0.48170984      -1.37943260
O        2.19979590       0.05712331      -0.07298333
C        3.00685123       1.21826174      -0.07082877
C        2.42108972       2.58287844      -0.51501346
N        3.00324097       3.23373182       0.71152645
C        3.22177302       1.86381315       1.31079298
C        4.51840546       1.63581975       2.05853057
H        1.42626503      -1.39295718      -1.27595696
H        3.00146183      -0.74160249      -1.83947285
H        1.50052210       0.22241190      -2.04839722
H        3.97511076       1.01618651      -0.57647732
H        1.32001590       2.59605789      -0.46532035
H        2.74833740       3.00443070      -1.47590726
H        3.92187154       3.62011162       0.46681959
H        2.35890869       1.63042886       1.95919487
H        5.39020222       1.82408801       1.41156105
H        4.57876728       0.59886679       2.41969349
H        4.58778529       2.30178902       2.93131113
