18
Properties=species:S:1:pos:R:3 -1746.8550472313723=T 11.369739=T 12.71377=T -8.7708=T -6.5941=T -9.991=T 0.8378=T -0.1132=T 2.806=T 9.51988=T -2.45893=T 8.0506465534=T 11.586057749=T 0.109775909=T pbc="F F F"
C        3.04599115      -1.19252597      -0.45096278
C        2.43078340       0.06321959       0.16612710
O        1.88341654      -0.21293672       1.47367419
C        3.39811681       1.22755499       0.19585753
C        3.52133319       2.15070250      -1.00810907
C        2.88854689       2.65573921       0.25649268
N        3.52419287       3.72129279       1.00256960
H        3.38266367      -0.99963122      -1.47988177
H        2.31543254      -2.01260773      -0.46591848
H        3.92321243      -1.52077733       0.13030349
H        1.54898496       0.36014554      -0.42777108
H        2.61599249      -0.52798012       2.03373453
H        4.33382168       1.03366166       0.73426995
H        2.88298887       1.96286122      -1.87361056
H        4.51623176       2.52247070      -1.26167983
H        1.79929729       2.75726583       0.23697669
H        4.53800011       3.69518318       0.86918699
H        3.35573336       3.59521190       2.00452082
