16
Properties=species:S:1:pos:R:3 -1528.340498716623=T 9.90612=T 10.47969=T -8.742=T -6.6096=T -10.036=T 0.8434=T -0.1346=T 3.176=T 9.35551=T -2.89333=T 8.2681551932=T 11.2614500024=T 0.095329508=T pbc="F F F"
N        1.08024131       0.03352825       0.54597973
C        2.42314207      -0.02394248      -0.06383857
C        3.28359761       1.16955825       0.41501326
C        4.16095806       0.56090284       1.52575872
N        4.45424119      -0.81697726       1.09289386
C        3.19477971      -1.27244152       0.47519013
H        0.56760000      -0.82762760       0.33555544
H        0.53959729       0.79110171       0.11948724
H        2.38953717      -0.04939802      -1.17054682
H        2.65494689       2.00343216       0.76190730
H        3.91808729       1.53881134      -0.40676622
H        5.09064381       1.11449363       1.71620237
H        3.59308935       0.51599257       2.46973339
H        5.17596055      -0.77570929       0.36728080
H        3.39902050      -2.02257342      -0.30139256
H        2.56975719      -1.74600118       1.25234193
