17
Properties=species:S:1:pos:R:3 -1683.875557356303=T 10.782275=T 12.03051=T -9.4417=T -7.2335=T -10.833=T 1.1691=T -0.8329=T 0.08=T 9.97165=T 0.54407=T 3.6720809634=T 11.8881620366=T 0.149872289=T pbc="F F F"
C        1.55730166       0.02003013       2.05645342
O        2.89140912       0.50569071       1.96672605
C        3.08210418       1.49105438       0.93913447
C        2.55168616       2.86512171       1.34817047
C        4.59063002       1.52823353       0.65983328
C        5.11301744       0.25743200       0.03139999
O        5.93461364       0.22558270      -0.86778894
H        1.56335462      -0.78058854       2.80661987
H        1.21445912      -0.39434194       1.09002137
H        0.84442709       0.79911222       2.37934546
H        2.54917776       1.15397214       0.02491125
H        3.07766035       3.22390952       2.24466614
H        1.47583227       2.83158363       1.56653817
H        2.70347514       3.59300841       0.53845705
H        5.10219098       1.65467903       1.63119229
H        4.86310363       2.37858402       0.01981972
H        4.69067681      -0.68708366       0.45717993
