13
Properties=species:S:1:pos:R:3 -1422.1164990877464=T 11.617593=T 12.51437=T -9.5721=T -7.4=T -9.451=T 1.0253=T -0.6596=T 0.971=T 9.0795=T -0.40852=T 4.3606124172=T 6.4119607872=T 0.3900993=T pbc="F F F"
C        1.76322662      -0.23340871      -1.23945624
C        2.21673393       0.07917329      -0.01977479
C        3.31548457       1.04087453       0.23658011
O        3.92138566       1.69064288      -0.88904696
C        3.13683573       2.51139862       0.01204516
C        3.83163726       3.48986085       0.80143081
C        4.39018908       4.33475537       1.47110264
H        0.94992569      -0.94611889      -1.37370479
H        2.20616987       0.21488829      -2.13041110
H        1.78944291      -0.38726926       0.87354203
H        4.02286349       0.76889222       1.03060278
H        2.17202668       2.82676810      -0.40172794
H        4.89270851       5.07732273       2.05693828
