14
Properties=species:S:1:pos:R:3 -1483.573100385729=T 10.72121=T 10.91445=T -8.5211=T -6.4307=T -8.781=T 0.8472=T -0.1543=T 1.04=T 8.48414=T -0.72473=T 5.250683114=T 6.841423494=T 0.564995718=T pbc="F F F"
N        0.90387806      -0.01165467      -0.15018865
C        2.39649668      -0.00511803      -0.12092816
C        2.88977625       1.22532611       0.59524049
C        3.52146047       1.17873676       1.77393919
O        3.84642490       0.02102891       2.44704472
C        3.53142352      -1.14970152       1.79203448
C        2.90019948      -1.21999053       0.61424978
H        0.58967417      -0.83512089      -0.67510618
H        0.58279301       0.79813437      -0.69195329
H        2.81163833      -0.01143984      -1.15247597
H        2.71074795       2.20569210       0.15071111
H        3.86762821       2.05227961       2.32496281
H        3.88508713      -2.01160341       2.35646405
H        2.72968184      -2.20861897       0.18491562
