21
Properties=species:S:1:pos:R:3 -1961.7000991402906=T 12.405875=T 13.31337=T -8.7978=T -6.6692=T -10.334=T 0.7941=T -0.165=T 2.781=T 9.70551=T -2.4356=T 8.2413370214=T 11.3597585018=T 0.107699329=T pbc="F F F"
C        0.88091057      -0.11930490       0.09416325
C        2.40280606      -0.01303023      -0.00560905
N        2.86977786      -0.86359000      -1.10711519
C        2.95247731       1.45942527      -0.04961021
C        2.49059273       2.21151473      -1.30355987
C        2.52577048       2.23273653       1.21249959
N        4.42860806       1.32287521      -0.13702315
H        0.48347990       0.38627719       0.98340604
H        0.59675559      -1.17885916       0.14810774
H        0.38917306       0.31198156      -0.79257073
H        2.82493284      -0.44489792       0.92464598
H        3.84282561      -0.60622239      -1.30580898
H        2.33535230      -0.64934750      -1.95424441
H        2.79757718       1.68194003      -2.21649409
H        2.93808159       3.21734246      -1.33326743
H        1.39954312       2.33903773      -1.31730618
H        2.79986322       1.67571237       2.12307772
H        1.44245857       2.42104619       1.24495141
H        3.03276580       3.20908661       1.25091302
H        4.79070446       0.98153938       0.75932632
H        4.84987370       2.24520687      -0.27780178
