13
Properties=species:S:1:pos:R:3 -1266.0123384991268=T 9.811739=T 10.92663=T -10.0126=T -8.0714=T -10.377=T 0.7931=T -0.2559=T -0.238=T 9.79556=T 0.57967=T 5.0859925102=T 12.1824676048=T 0.252425123=T pbc="F F F"
O        0.85198805       0.00508430       0.40461489
S        2.23110967       0.04365888      -0.10615999
O        2.51384617       0.12471116      -1.54966098
C        3.18833394       1.32659704       0.80114311
C        4.39846897       0.55929898       1.32024170
O        3.93165816      -0.74780304       1.72814157
C        3.25912271      -1.32805973       0.64209998
H        2.54350622       1.69041684       1.60938921
H        3.42772987       2.12082680       0.08578206
H        5.17351592       0.45680393       0.53926313
H        4.84053618       1.02306500       2.21015122
H        3.93492923      -1.66850791      -0.16244532
H        2.59285491      -2.12241225       0.99647943
