17
Properties=species:S:1:pos:R:3 -1727.6054418363785=T 11.997627=T 13.21962=T -9.4777=T -7.3355=T -9.665=T 1.3604=T -0.2979=T 0.997=T 9.1737=T -0.43719=T 6.5544950928=T 0.532926491=T pbc="F F F"
C        0.83119555       0.19933133       0.27723229
C        2.14345555       0.46191737      -0.46830487
C        3.14523096       1.20303452       0.38503971
O        4.26341742       1.81613642      -0.27814433
C        3.27029430       2.67979183       0.34898232
C        3.71691483       3.45736852       1.51932097
C        3.32851221       4.71504078       1.76880904
H        0.12973304      -0.36811151      -0.34960306
H        0.34063259       1.13999555       0.56724816
H        1.00154314      -0.38397528       1.19473825
H        1.96247379       1.04198632      -1.38671279
H        2.59499808      -0.49366038      -0.78375808
H        3.41149444       0.70818947       1.33094257
H        2.63446139       3.21557779      -0.36854367
H        4.40267668       2.94184020       2.19936329
H        2.65622024       5.24787539       1.09178388
H        3.66494579       5.25057169       2.65651633
