15
Properties=species:S:1:pos:R:3 -1510.6129977060257=T 12.056825=T 12.30648=T -8.6921=T -6.7265=T -9.068=T 1.0837=T -0.5289=T 0.048=T 8.59773=T 0.58631=T 4.289853607=T 5.1231387158=T 0.434026638=T pbc="F F F"
N        1.48165950      -0.29014695      -0.99991777
C        2.55273828      -0.12362792      -0.00207198
C        2.94500859       1.31897922       0.10404555
C        4.20083242       1.75622899      -0.08365086
N        4.61295332       3.08701516       0.00955284
C        5.90251538       3.52806055      -0.18075620
O        6.25124781       4.69683256      -0.09839604
H        1.15434045      -1.25886752      -1.00651439
H        1.84896536      -0.09448173      -1.93472758
H        3.46027890      -0.73417825      -0.18907457
H        2.14231258      -0.46192369       0.96568827
H        2.13931605       2.02632348       0.32567321
H        5.01147756       1.06238665      -0.32363679
H        3.92575690       3.80777639       0.23455213
H        6.59918691       2.69186305      -0.42016582
