10
Properties=species:S:1:pos:R:3 -1187.373620427449=T 12.257064=T 12.38917=T -9.5951=T -7.637=T -9.397=T -0.3551=T -2.0647=T -0.712=T 8.98884=T 1.31482=T 2.9386789762=T 8.348101366=T 1.202590858=T pbc="F F F"
N        1.00533514      -0.02156750       0.00000000
C        2.37454932      -0.05959692       0.00000000
O        3.03291802      -1.09893521       0.00000000
C        3.01466837       1.24524689       0.00000000
C        3.66685828       2.28232732       0.00000000
C        4.37415111       3.43942032       0.00000000
C        5.00752618       4.48291628       0.00000000
H        0.49882891       0.85655087       0.00000000
H        0.49835551      -0.90096849       0.00000000
H        5.56759917       5.39541643       0.00000000
