15
Properties=species:S:1:pos:R:3 -1469.680614132128=T 11.185268=T 11.39258=T -8.6399=T -6.7235=T -9.769=T 0.3574=T -1.2418=T -0.149=T 9.15893=T 0.62199=T 4.534663964=T 5.5620987502=T 0.233119774=T pbc="F F F"
C        1.00598174      -0.00248565      -0.26734868
C        2.45450769      -0.20643664       0.09753370
C        2.97328016      -1.42076809       0.35101177
C        3.33580402       0.99340145       0.16559662
N        4.58774270       1.09869232      -0.15339755
N        2.72142468       2.17141164       0.57451575
O        3.63514125       3.22393981       0.79008343
H        0.91379830       0.50781070      -1.23729574
H        0.48027066       0.62771863       0.46642003
H        0.48134321      -0.96465849      -0.31938776
H        2.35757302      -2.31882081       0.28664471
H        4.01654677      -1.54717952       0.64345268
H        4.95802528       0.24127438      -0.56778300
H        2.10919210       2.09432235       1.39032800
H        4.47959842       2.77674791       0.47343605
