17
Properties=species:S:1:pos:R:3 -1748.9566844232277=T 11.780342=T 12.84003=T -9.1072=T -7.0728=T -9.774=T 0.8345=T -0.8622=T 0.054=T 9.46109=T 0.63132=T 3.7193196294=T 6.1287271688=T 0.273259584=T pbc="F F F"
C        1.29466044      -0.58434689       0.03871237
C        2.77955099      -0.27774206      -0.11259240
C        3.12319740       1.20033741      -0.05345350
O        2.27506416       2.07763322      -0.00124638
C        4.62079480       1.54492267      -0.02469139
C        5.07921313       1.68897976       1.40197363
C        5.99924138       0.91710414       1.99207105
H        1.11055553      -1.66401383      -0.04193017
H        0.70686095      -0.07137545      -0.73370650
H        0.92060106      -0.24121614       1.01267254
H        3.17162161      -0.65641795      -1.07450592
H        3.38508966      -0.78770668       0.65735597
H        4.73927358       2.50105598      -0.55734373
H        5.21036760       0.76838454      -0.53502336
H        4.58765551       2.48285073       1.97389415
H        6.50977231       0.11731012       1.44925171
H        6.28059988       1.06770044       3.03510193
