17
Properties=species:S:1:pos:R:3 -1642.2828179686037=T 11.079923=T 11.94261=T -9.0105=T -7.0404=T -9.741=T 0.5936=T -0.378=T 0.873=T 8.90082=T -0.22035=T 4.9140487254=T 5.9844570592=T 0.151626516=T pbc="F F F"
C        0.93844908       0.07947046       0.57059375
N        2.34567431       0.16558094       0.23183309
C        3.02199429       1.35731289       0.13500836
N        2.49452437       2.53878466       0.22621497
C        4.51914922       1.23137249      -0.08168269
C        5.11978800       2.44081873      -0.81309183
O        4.98136991       3.64624915      -0.07896331
H        0.65234698      -0.97646178       0.63312787
H        0.31154698       0.55446581      -0.20142251
H        0.71864367       0.55646172       1.54084597
H        2.88997861      -0.68953478       0.21508788
H        1.48225007       2.51291396       0.38812637
H        4.73934612       0.31058675      -0.64810690
H        5.00236236       1.13494012       0.90576793
H        4.64889792       2.52044726      -1.81437359
H        6.19734290       2.27285778      -0.96611330
H        4.01125521       3.67827385       0.12193796
