13
Properties=species:S:1:pos:R:3 -1479.8433268765668=T 13.393111=T 11.8976=T -7.8692=T -6.0124=T -7.956=T -0.2345=T -1.7116=T -0.424=T 7.36708=T 0.94927=T 4.1363465404=T 0.736882157=T pbc="F F F"
C        0.89911212       0.04837175      -0.00101281
C        2.24452513      -0.03720007       0.00186871
O        3.04607961       1.10130473       0.00716204
C        4.37796853       0.69539510       0.00903050
C        5.38699261       1.58946365       0.01407359
C        4.40005977      -0.75435578       0.00471922
C        3.11774447      -1.19467732       0.00039527
H        0.39418866       1.01171716       0.00072682
H        0.30458540      -0.86173486      -0.00512669
H        6.41521553       1.23659304       0.01540029
H        5.19355583       2.65977482       0.01685351
H        5.31127902      -1.34677200       0.00505496
H        2.76267333      -2.22190022      -0.00352541
