13
Properties=species:S:1:pos:R:3 -1397.659026882651=T 10.747442=T 11.27278=T -8.8268=T -6.8629=T -9.457=T 0.9877=T -0.1452=T 0.79=T 8.84838=T -0.17001=T 4.3703081224=T 10.7294508736=T 0.28611455=T pbc="F F F"
C        0.94218377      -0.01982091       0.03754233
C        2.15651113      -0.00989572       0.01736143
C        3.61709083       0.00433006      -0.00788314
C        4.25302048      -1.19410487      -0.80821956
N        4.68182362      -0.64691163      -2.10453319
C        4.57669156       0.62895089      -2.00293038
N        4.16255653       1.15390231      -0.77658871
H       -0.12875066      -0.03144366       0.05141264
H        3.99391458       0.03143477       1.02617977
H        3.54089214      -2.01868085      -0.94546787
H        5.13188222      -1.58528753      -0.27091027
H        4.84636865       1.31920402      -2.80623766
H        3.58983515       1.99732311      -0.79568539
