11
Properties=species:S:1:pos:R:3 -1267.4808256820477=T 11.839984=T 11.73934=T -8.3946=T -6.534=T -8.333=T 0.262=T -1.3029=T -0.317=T 7.87869=T 0.95321=T 4.0380256424=T 7.9170268412=T 0.362525783=T pbc="F F F"
N        1.06571520      -0.21662551       0.00000000
C        2.41045903      -0.09584327       0.00000000
C        3.07864861       1.11124170       0.00000000
C        2.35856959       2.33412815       0.00000000
C        1.67274730       3.34094281       0.00000000
C        4.50282250       1.12132309       0.00000000
N        5.67401882       1.12843379       0.00000000
H        0.62092256      -1.12404230       0.00000000
H        0.48428947       0.61770040       0.00000000
H        2.98019141      -1.02512275       0.00000000
H        1.10386550       4.24795389       0.00000000
