13
Properties=species:S:1:pos:R:3 -1394.3289572767042=T 10.705139=T 11.94223=T -9.4997=T -7.3321=T -9.775=T 0.6545=T -1.2996=T -0.244=T 9.41144=T 0.87678=T 3.6206019762=T 10.3169246544=T 0.26688762=T pbc="F F F"
C        0.98522367       0.02653305      -0.00062186
C        2.43789824      -0.00042864      -0.00128697
C        3.65432819      -0.05425979       0.02360545
C        5.10840413      -0.02399828      -0.01434976
O        5.66626466      -0.64952475      -1.18420218
C        5.56392754       1.45113447       0.01722894
O        6.07359671       1.98841889       0.97605542
H        0.60800882       1.05954730       0.00241838
H        0.58326985      -0.48556306       0.88561522
H        0.58348971      -0.47657291      -0.89229673
H        5.54395492      -0.52875282       0.86268825
H        4.98866114      -0.61430982      -1.88366853
H        5.39893241       1.98223637      -0.95536564
