13
Properties=species:S:1:pos:R:3 -1354.9925339222657=T 10.790464=T 10.67971=T -9.0662=T -7.2075=T -9.53=T 0.5648=T -1.1353=T -0.017=T 8.87874=T 0.55632=T 4.3714115978=T 5.193897526=T 0.467144678=T pbc="F F F"
C        1.35642000      -0.15133068       0.22232939
N        2.56215152      -0.01555601      -0.21239854
N        3.07733324       1.22548309      -0.25481202
C        2.57035659       2.57843206       0.10317284
C        3.95011075       3.12742417      -0.33581299
C        4.34868522       1.66961478      -0.66518551
O        5.32236655       1.09788562      -1.09302752
H        0.95465398      -1.16473887       0.25246675
H        0.72765482       0.68385696       0.55982761
H        2.33526426       2.68333998       1.17236779
H        1.71402064       2.89615539      -0.50955874
H        3.93765594       3.78689175      -1.21173153
H        4.55306649       3.57545175       0.46299249
