13
Properties=species:S:1:pos:R:3 -1440.6417323018206=T 9.138858=T 10.05342=T -9.915=T -7.8413=T -11.162=T 1.1371=T -0.2305=T 0.229=T 10.1272=T 0.40107=T 4.381479261=T 11.8859922816=T 0.231811762=T pbc="F F F"
O        1.24702221       0.16285578       0.51913033
C        2.29009809      -0.01248314      -0.06507414
O        2.51419101      -1.13915046      -0.84108474
C        3.91053114      -1.23476153      -1.22242630
C        4.54789698       0.10474549      -0.89631564
C        3.89992478       1.30629145      -1.51209932
C        3.50108461       0.86432503      -0.11112691
H        4.36690497      -2.05124270      -0.64144566
H        3.94511280      -1.48961802      -2.29193611
H        5.60030806       0.13150085      -0.61578767
H        4.48724091       2.22203217      -1.57057232
H        3.17954884       1.16390033      -2.32013946
H        3.70457560       1.50213475       0.74606795
