13
Properties=species:S:1:pos:R:3 -1323.1597750501478=T 9.134886=T 9.63517=T -9.3288=T -7.0911=T -9.33=T 1.4622=T 0.0527=T 1.345=T 8.83718=T -0.77636=T 6.4943990786=T 0.41357949=T pbc="F F F"
C        1.71672791      -0.37998845      -1.24842075
C        2.22253965       0.12745091      -0.11665856
C        3.27998310       1.16390572      -0.00848685
C        3.68666848       2.03565480      -1.16937687
C        2.90425237       2.64050246      -0.02846701
H        0.91963813      -1.12379642      -1.22602333
H        2.08036105      -0.07476605      -2.23205871
H        1.82884420      -0.23208509       0.84164672
H        4.07473937       0.91699841       0.70207144
H        3.16691789       1.90331915      -2.11854254
H        4.74210012       2.29191232      -1.26499312
H        3.41697449       3.30993546       0.66321759
H        1.85540324       2.87703677      -0.21092801
