15
Properties=species:S:1:pos:R:3 -1610.7732823617666=T 11.257952=T 11.71124=T -8.4217=T -6.3474=T -8.288=T 0.7551=T -0.7544=T 0.64=T 7.80434=T -0.095=T 4.6580796284=T 7.2022723484=T 0.63655362=T pbc="F F F"
O        2.94822410      -1.06963304      -0.57668072
C        2.31736068       0.01507674       0.11776477
C        3.25502462       1.22516401       0.05723000
C        2.75563933       2.41536774       0.83463224
C        2.71724085       3.49485309       0.01556547
C        3.15829286       3.10148732      -1.32624170
C        3.46775902       1.78177623      -1.32627324
H        2.32126644      -1.81123777      -0.60534004
H        2.13383383      -0.25056213       1.17530044
H        1.35129976       0.28230339      -0.34717246
H        4.23159617       0.89668786       0.46729516
H        2.49109000       2.38570787       1.89061334
H        2.41469014       4.50368545       0.29683408
H        3.21861351       3.77729247      -2.17942894
H        3.81635870       1.18192077      -2.16389838
