19
Properties=species:S:1:pos:R:3 -1800.3565223000403=T 12.768918=T 13.386=T -7.7639=T -5.8946=T -9.136=T 1.066=T -0.1217=T 0.929=T 8.46217=T -0.22=T 4.5010265622=T 6.165079864=T 0.220746446=T pbc="F F F"
C        1.61930540      -0.70904491       0.16123636
N        3.07342563      -0.61098642       0.00200374
C        3.51761075      -1.47605859      -1.09822369
N        3.36841467       0.76528335      -0.29305735
C        4.58205045       1.14445464      -0.06651767
C        5.67933176       0.28910726       0.50665668
C        4.90950201       2.57728326      -0.38238536
H        1.30019379      -0.03455256       0.96480837
H        1.36532552      -1.73941009       0.44602435
H        1.07187423      -0.44041994      -0.76413016
H        3.20648544      -2.50691844      -0.87960503
H        4.61121197      -1.46173988      -1.18571594
H        3.07867181      -1.17023322      -2.07022551
H        6.34878467      -0.08536552      -0.28458773
H        5.24854089      -0.57244943       1.03378081
H        6.30242940       0.88007587       1.19327981
H        4.02446126       3.09216325      -0.77398717
H        5.71919916       2.63843713      -1.12722783
H        5.26838119       3.09931425       0.51945332
