10
Properties=species:S:1:pos:R:3 -985.2645115749048=T 9.387235=T 10.63627=T -10.7524=T -8.7258=T -10.61=T 0.7303=T -1.1429=T -0.874=T 10.22276=T 1.35376=T 4.462628098=T 11.5188077426=T 0.269046197=T pbc="F F F"
C        1.05521202       0.03682190      -0.00072533
S        2.84108303      -0.11258043       0.01194584
O        3.25442969      -0.68473973       1.29551927
O        3.27185078      -0.69243586      -1.26246513
C        3.31716005       1.56113808       0.00933112
C        3.70584266       2.71156603      -0.00044326
H        0.75491808       0.56111056      -0.91397825
H        0.74240450       0.56600672       0.90548891
H        0.67933310      -0.99425641      -0.00050882
H        4.04975609       3.72753914      -0.00890436
