13
Properties=species:S:1:pos:R:3 -1271.7288666236634=T 10.335336=T 11.47355=T -10.6139=T -8.504=T -10.924=T 0.4145=T -1.2977=T -0.401=T 10.43675=T 0.92962=T 4.9604442866=T 6.5337398364=T 0.31084626=T pbc="F F F"
C        1.22573189      -0.00029645      -0.51092323
C        2.51721755      -0.11155548       0.23641290
C        3.00838922      -1.17731894       0.87586204
S        3.48126175       1.40283515       0.31746932
O        3.86712890       1.61297684      -1.28611738
O        2.57476972       2.49962718       0.63017644
O        4.73387137       1.17400219       1.03847693
H        0.57953987       0.76197732      -0.05399437
H        0.70404269      -0.96539019      -0.50269477
H        1.39794473       0.30104650      -1.55415586
H        2.45193605      -2.11604633       0.88672479
H        3.96006678      -1.13045728       1.40367774
H        4.77514948       1.26013949      -1.38636456
