14
Properties=species:S:1:pos:R:3 -1460.409420230105=T 10.578252=T 10.89695=T -8.8443=T -6.9508=T -9.382=T 0.6088=T -1.0583=T -0.528=T 8.80135=T 1.11727=T 4.1363961348=T 4.723990586=T 0.336855008=T pbc="F F F"
C        0.97973962      -0.05201422       0.08517963
C        2.47306638      -0.11436608      -0.06644460
N        2.98543001      -1.40332965      -0.20689106
C        3.23908787       1.01246528      -0.02747974
C        4.70132812       1.10231571      -0.13637098
O        5.42817883      -0.01263117       0.26533725
O        5.29988881       2.08098931      -0.53991368
H        0.64576290       0.96754618       0.30393965
H        0.65036821      -0.70715088       0.90672890
H        0.47806510      -0.39527019      -0.83339905
H        2.29797750      -2.12035630      -0.42223490
H        3.83403291      -1.49766358      -0.76317450
H        2.73401308       1.97563021       0.01953681
H        4.83631067      -0.60459462       0.77275628
