17
Properties=species:S:1:pos:R:3 -1593.3125599847992=T 11.65093=T 12.40527=T -9.2627=T -6.9491=T -10.54=T 1.4056=T -0.5155=T 0.308=T 10.40199=T 0.20224=T 5.323090938=T 6.5905626202=T 0.447359554=T pbc="F F F"
N        0.83964557      -0.31442538       0.16331544
C        2.31222780      -0.29614825       0.18131852
C        2.82438376       1.09358013      -0.20004487
C        4.33065648       1.25307035      -0.09496495
O        4.94204823       0.41293673      -1.10227368
N        6.33672336       0.51444862      -0.99890038
C        6.92545376      -0.20240149      -1.88369050
H        0.50242823      -1.23060085       0.46771108
H        0.50795357      -0.20102472      -0.79902763
H        2.78248020      -1.05179771      -0.47655510
H        2.63577962      -0.52379065       1.21093513
H        2.35216148       1.83691955       0.46160272
H        2.50903900       1.34096536      -1.22847900
H        4.70117052       0.94685871       0.89789696
H        4.63188650       2.29811610      -0.27149838
H        8.01505491      -0.17947886      -1.86951567
H        6.38769698      -0.81011765      -2.62092971
