14
Properties=species:S:1:pos:R:3 -1481.5715285495548=T 12.974507=T 13.68788=T -8.5811=T -6.6696=T -8.242=T 0.8007=T -0.6788=T 0.146=T 7.77687=T 0.60602=T 4.1557503494=T 11.569939569=T 0.392366617=T pbc="F F F"
C        0.77565074       0.17212762      -0.00865236
C        2.26260285       0.01473912      -0.00105837
C        3.23369194       0.98721532       0.00388127
N        4.54296338       0.56859681       0.01062038
C        4.62493163      -0.73669319       0.01098131
C        5.90103631      -1.51734126       0.01670806
S        3.05344289      -1.54216400       0.00298142
H        0.51937164       1.24008187      -0.00267645
H        0.30869869      -0.29124078       0.87299656
H        0.31913615      -0.27884486      -0.90217116
H        3.01676453       2.05622529       0.00305646
H        5.71463156      -2.59793832       0.02768236
H        6.50052258      -1.25706260       0.90055058
H        6.49833511      -1.27520103      -0.87387005
