18
Properties=species:S:1:pos:R:3 -1775.9080695451523=T 12.444098=T 13.59528=T -8.6365=T -6.6133=T -9.575=T 0.8717=T -0.0454=T 2.383=T 9.21143=T -1.92056=T 4.3574135784=T 10.9040479588=T 0.566835523=T pbc="F F F"
C        1.07057612      -0.26699230      -0.02243395
N        2.50776982      -0.02126790       0.09562303
C        2.94790510       1.39840096       0.01205623
C        2.45911768       2.14145954      -1.25889724
C        2.47542059       2.15233749       1.27472991
C        4.42017560       1.37668004      -0.00484184
C        5.63335984       1.37708806      -0.04373192
H        0.90752900      -1.35281125       0.01850491
H        0.59316382       0.11160186      -0.94814476
H        0.53916352       0.16789244       0.83626107
H        3.00543229      -0.54709358      -0.62623031
H        2.78842612       1.61532665      -2.16593386
H        2.86546546       3.16164584      -1.28861819
H        1.36237288       2.21085903      -1.26803496
H        2.81158944       1.62191272       2.17436370
H        1.37908785       2.22695771       1.29171331
H        2.88541108       3.17039934       1.28443835
H        6.70393380       1.36933335      -0.06836350
