15
Properties=species:S:1:pos:R:3 -1553.1781327253161=T 10.202409=T 10.79982=T -9.4609=T -7.2692=T -9.506=T 1.388=T -0.2233=T 1.071=T 8.99134=T -0.46183=T 6.3453679066=T 0.356667824=T pbc="F F F"
O        0.92750246       0.11650135       0.09214299
C        2.35924052       0.03315590       0.23015247
C        3.06871854       1.26623189      -0.33087748
O        3.10315733       1.22860728      -1.76359862
C        3.93100790       0.15972731      -2.22018568
C        3.63124288      -1.14730517      -1.54550631
C        2.89788883      -1.21380558      -0.42500560
H        0.74967553       0.11624402      -0.86754925
H        2.53082375      -0.00751810       1.31900958
H        2.51648500       2.17574790      -0.05916757
H        4.09805536       1.33126662       0.07669103
H        5.00382306       0.42171595      -2.08188034
H        3.75629035       0.08346410      -3.30476443
H        4.03340128      -2.05044867      -2.01327379
H        2.64338721      -2.17394482       0.02916299
