17
Properties=species:S:1:pos:R:3 -1791.122725827757=T 15.840098=T 14.54616=T -7.9374=T -6.1453=T -7.83=T -0.0072=T -1.4694=T -0.268=T 7.229=T 0.8612=T 4.2525462196=T 1.041523571=T pbc="F F F"
C        1.04854145       0.05013163      -0.00495664
C        2.54300657      -0.13465831       0.04407141
C        3.06615427      -1.49538380       0.03227611
C        2.32230335      -2.61945144      -0.01840598
C        3.35644840       0.96438579       0.09992009
C        4.80037967       1.00200240       0.15243918
C        5.51101527       2.14789844       0.21646501
H        0.78094521       1.11411083       0.00749484
H        0.55847091      -0.43631676       0.85326021
H        0.62108734      -0.39964293      -0.91506246
H        4.15240271      -1.60741734       0.06924307
H        1.23229616      -2.59629118      -0.05682791
H        2.79316532      -3.60248649      -0.02212156
H        2.86819403       1.94570837       0.10762242
H        5.34748780       0.05544058       0.13950030
H        5.01471295       3.12128181       0.23283112
H        6.60006859       2.14354840       0.25540079
