15
Properties=species:S:1:pos:R:3 -1516.542859952404=T 10.772326=T 11.24256=T -9.1129=T -7.0788=T -9.72=T 0.9815=T -0.331=T 0.306=T 9.5135=T 0.25281=T 4.325747554=T 6.2395086598=T 0.27375452=T pbc="F F F"
N        1.24828235       0.16567850       0.30179878
C        2.67150994       0.10085432      -0.05021668
C        2.89908190       0.01302146      -1.53894899
C        1.95373004       0.05980581      -2.48391735
C        3.44592175       1.35253611       0.45319400
N        2.64415486       2.41290721       0.74147318
O        4.66998465       1.34614382       0.55399710
H        1.13014698      -0.06301116       1.29107134
H        0.73345865      -0.54619919      -0.22249431
H        3.20684275      -0.75035853       0.41392480
H        3.95203262      -0.08318469      -1.81611221
H        0.89515127       0.18729811      -2.25009803
H        2.21854764      -0.01150935      -3.53906426
H        1.64818640       2.32739039       0.54670583
H        3.06918820       3.30517721       0.96867678
