15
Properties=species:S:1:pos:R:3 -1611.8029875953198=T 11.437391=T 11.55965=T -8.3522=T -6.2766=T -8.192=T 0.5065=T -1.0544=T 0.405=T 7.77884=T 0.15929=T 4.5428718372=T 0.234992096=T pbc="F F F"
O        0.87751854      -0.05793178       0.05511105
C        2.32531600       0.01785722       0.09448559
C        2.84365554       1.33956817      -0.54578908
C        3.82153241       1.20507328      -1.67939211
C        4.23625037       0.01071688      -2.13958538
C        3.72714041      -1.23203064      -1.56526206
C        2.83731115      -1.23758885      -0.55513268
H        0.53434480       0.54482448       0.73813629
H        2.63674257      -0.01340927       1.15703047
H        3.28378836       1.98526054       0.23268021
H        1.96001242       1.89156119      -0.91658573
H        4.16686235       2.13029957      -2.14754504
H        4.94190222      -0.04626382      -2.97056161
H        4.07659096      -2.17847604      -1.98408453
H        2.44711190      -2.17303094      -0.14915539
