15
Properties=species:S:1:pos:R:3 -1572.6391419679746=T 11.727348=T 12.68309=T -9.7872=T -7.5715=T -9.353=T 1.0055=T -0.4101=T 1.157=T 8.76917=T -0.5373=T 4.3471103418=T 10.4825947476=T 0.455458038=T pbc="F F F"
O        3.27900412      -0.72186031       0.67018576
C        2.41339268       0.08158835      -0.15496384
C        2.65116132       1.53357382       0.16012608
C        1.66316659       2.33907825       0.56852907
C        4.07706363       2.03208107      -0.01622402
C        4.55335824       1.93605052      -1.39433158
C        4.93766894       1.84874379      -2.54274859
H        3.36983831      -1.59130547       0.24623950
H        1.35273851      -0.16842427       0.02371367
H        2.63722711      -0.08981843      -1.22407188
H        0.65143823       1.95875520       0.72172326
H        1.83039730       3.40137151       0.75656557
H        4.73843442       1.42894858       0.62910814
H        4.14909897       3.07538265       0.32774029
H        5.28373164       1.78310473      -3.55385142
