17
Properties=species:S:1:pos:R:3 -1685.0966266855366=T 13.067457=T 13.15176=T -7.914=T -6.0876=T -8.356=T 1.2902=T -0.2731=T 0.705=T 7.71233=T -0.13279=T 4.9316175416=T 5.0071002184=T 0.36912752=T pbc="F F F"
C        1.47377540      -1.00778596       0.86588688
C        2.87884245      -0.69636328       0.44741643
C        3.34871204       0.56193818       0.33301543
N        4.63523792       0.93565770      -0.05141378
C        5.59792787      -0.10686976      -0.37355683
C        5.02816205       2.27567468      -0.13512252
N        4.38508014       3.36054158       0.09929887
H        0.93388211      -1.56733129       0.08442260
H        0.90251056      -0.09266857       1.07780076
H        1.45238498      -1.63472417       1.77213287
H        3.52867683      -1.54750817       0.23050611
H        2.68904245       1.40381257       0.55200701
H        5.24414933      -0.72154101      -1.21650246
H        5.76868072      -0.76509885       0.49344429
H        6.54983677       0.35804541      -0.65287275
H        6.07343818       2.36087626      -0.46213010
H        3.41630019       3.19656468       0.40209717
