16
Properties=species:S:1:pos:R:3 -1483.0522196190504=T 9.594679=T 10.47602=T -8.6249=T -6.4535=T -10.032=T 1.0035=T 0.0547=T 3.452=T 9.32009=T -3.30289=T 8.1521042972=T 12.360102347=T 0.304427477=T pbc="F F F"
C        1.08687635      -0.15721805       0.10374081
C        2.61045395      -0.11273726       0.07036065
N        3.09920036       1.26253869      -0.04152463
C        4.55975960       1.35920668      -0.02827498
C        5.01880729       2.81124760      -0.10201017
H        0.72705815      -1.19468500       0.15084923
H        0.66495648       0.32022945      -0.79173904
H        0.69249074       0.36977754       0.98702859
H        2.97797603      -0.66760964      -0.81042023
H        3.02052525      -0.64068237       0.96158763
H        2.72369098       1.81210822       0.73866455
H        4.93621637       0.80684417      -0.90684408
H        5.01239325       0.86758640       0.86313773
H        4.61961894       3.29920638      -1.00221647
H        6.11587982       2.87355076      -0.12622367
H        4.67458644       3.38267644       0.77458408
