12
Properties=species:S:1:pos:R:3 -1259.2430198100894=T 8.775285=T 9.40989=T -9.1539=T -7.0688=T -10.245=T 1.2747=T -0.5589=T 0.261=T 9.8875=T 0.3139=T 5.4687992852=T 12.2325951446=T 0.144106342=T pbc="F F F"
O        1.15076707      -0.02179844       0.83903089
C        2.44476027      -0.00688430       0.28947945
C        2.64327684       0.74991424      -0.99272111
O        3.97824605       1.10362518      -1.35474246
N        4.72646471      -0.08354946      -1.56499113
C        3.94446449      -1.10052918      -1.41226412
C        2.55931951      -0.77301087      -1.01943705
H        1.00125447       0.83745506       1.27399075
H        3.28100650      -0.07537166       0.99411265
H        1.88229076       1.42656556      -1.38380204
H        4.34959142      -2.09664976      -1.58580932
H        1.69916792      -1.34361638      -1.37034651
