19
Properties=species:S:1:pos:R:3 -1872.4875236077492=T 11.54229=T 12.84807=T -9.2618=T -7.138=T -11.286=T 0.8616=T -0.0506=T 2.659=T 10.65661=T -2.33778=T 9.034797827=T 10.2789229454=T 0.111973254=T pbc="F F F"
C        0.96581088       0.08011739       0.06918162
C        2.46551537      -0.10289915       0.02644904
O        3.19237743       0.94594231       0.74262903
C        4.11551364      -0.04336147       1.27840201
C        3.19297229      -1.21293144       0.85390269
C        2.38228713      -1.76598677       2.02558884
C        3.83172209      -2.33270931       0.03930273
H        0.46446469      -0.73485175      -0.47459754
H        0.69379272       1.02637431      -0.42044978
H        0.58635593       0.10610726       1.09899848
H        2.80564046      -0.13008492      -1.02868845
H        5.08515829      -0.02063296       0.74769292
H        4.28280656       0.09703168       2.35864253
H        1.95138325      -0.96075199       2.63700470
H        3.02816209      -2.37285901       2.67862042
H        1.56023296      -2.41032808       1.67810011
H        4.42466394      -1.93261688      -0.79619236
H        3.06375321      -3.00162262      -0.37987508
H        4.49765706      -2.94788660       0.66409809
