14
Properties=species:S:1:pos:R:3 -1438.0523422553551=T 11.047408=T 12.41247=T -9.5438=T -7.2596=T -9.91=T 0.9268=T -0.1792=T 1.907=T 9.54101=T -1.5107=T 4.3611331584=T 10.4574503868=T 0.437698287=T pbc="F F F"
N        2.96236165      -1.19333116      -0.36978793
C        2.34774751       0.02094885       0.18327320
C        3.38005512       1.11211864       0.34177327
O        3.67721530       1.93423225      -0.79727508
C        2.99383465       2.54447138       0.33016510
C        3.70837637       3.53184119       1.09392254
C        4.28467442       4.38298132       1.74008981
H        2.23712012      -1.86842876      -0.61886060
H        3.54637719      -1.64734518       0.33697381
H        1.85039261      -0.11984620       1.16645811
H        1.58231051       0.37296510      -0.52483423
H        4.26615313       0.84964790       0.93578237
H        1.94123502       2.78245922       0.13250252
H        4.80362642       5.13065543       2.30436711
