14
Properties=species:S:1:pos:R:3 -1402.0200626145108=T 10.379108=T 10.89129=T -9.4972=T -7.5145=T -10.028=T 0.923=T -0.5732=T 0.048=T 9.9384=T 0.5774=T 4.2260256142=T 6.7932425344=T 0.435371743=T pbc="F F F"
O        0.56628194      -0.05990304      -0.77900298
N        1.51191714      -0.32078966       0.24822254
C        2.54072797      -1.30276720      -0.10288522
C        2.02568488      -2.71516820      -0.11482064
C        2.47910377      -3.67845962       0.69282132
C        1.76427912       0.74096073       1.09089579
O        2.70625798       0.79438673       1.87092454
H       -0.21199462      -0.59498948      -0.52680281
H        3.32899544      -1.17116744       0.65125921
H        2.94896349      -1.02957297      -1.09221069
H        1.25439851      -2.94759818      -0.85713973
H        3.25602721      -3.47907338       1.43497783
H        2.09408047      -4.69759012       0.63835309
H        0.97399669       1.51676184       0.99373775
