20
Properties=species:S:1:pos:R:3 -1942.810122109869=T 13.426817=T 14.90452=T -9.0555=T -6.8448=T -8.984=T 0.9678=T 0.0215=T 1.462=T 8.44348=T -0.81238=T 6.2821970396=T 0.415579249=T pbc="F F F"
C        1.82163876      -0.61239327       1.22047225
C        2.64332711      -0.20397389      -0.01185867
C        3.00228719       1.25390001      -0.01619886
C        4.24832292       1.74775823      -0.02877905
C        4.60138286       3.20613951      -0.01981200
C        5.43481683       3.61447235       1.20341770
N        5.75460797       5.04893326       1.15101567
H        1.54618357      -1.67611275       1.17898239
H        0.89182698      -0.02761203       1.28880908
H        2.39110815      -0.44136239       2.14557552
H        2.05799656      -0.43658784      -0.91961173
H        3.56241927      -0.80946559      -0.06946525
H        2.15893715       1.95775473       0.00118254
H        5.09011949       1.04208378      -0.04089480
H        3.69206765       3.82598620      -0.05491467
H        5.18532398       3.44693111      -0.92874787
H        6.32439223       2.95334317       1.26831437
H        4.84046050       3.43328495       2.11339397
H        6.38699757       5.23344262       0.36710114
H        6.26144326       5.32446786       1.99497827
