11
Properties=species:S:1:pos:R:3 -1246.5611953356918=T 10.374747=T 9.82771=T -8.5937=T -6.7006=T -8.958=T -0.9172=T -2.732=T -1.766=T 8.30076=T 2.13323=T 2.742446334=T 6.1006319412=T 0.411605958=T pbc="F F F"
N        1.08391609       0.07400445       0.00827164
C        2.41532888      -0.11449498       0.00675686
C        3.19070955      -1.24475901      -0.00507987
C        4.56122471      -0.77617074      -0.00057533
O        5.63652293      -1.37172811      -0.00650214
C        4.40708720       0.76308230       0.01504896
N        3.17784371       1.13429473       0.01965228
H        0.43042926      -0.69904261      -0.00273731
H        0.73686929       1.02806818       0.01994860
H        2.87450776      -2.28195272      -0.01500141
H        5.24117062       1.46937852       0.02162771
