17
Properties=species:S:1:pos:R:3 -1730.0260246596113=T 12.767067=T 13.50001=T -8.6059=T -6.5402=T -8.85=T 0.8608=T -0.0132=T 1.146=T 8.26485=T -0.65916=T 5.9084784384=T 0.525281548=T pbc="F F F"
C        0.31318577      -0.31793516      -0.02346782
C        1.75238099       0.01884228      -0.26156374
C        2.29277298       1.24328239      -0.34734429
C        1.61720514       2.57437100      -0.23083769
O        3.65662452       1.31797491      -0.69442550
C        4.49073249       1.89306119       0.23510275
C        5.72471833       2.30493398      -0.07410765
H        0.20091595      -0.94943125       0.87225221
H       -0.09879588      -0.89605889      -0.86681822
H       -0.31770550       0.56963768       0.11131164
H        2.44022366      -0.81989713      -0.40299315
H        0.55209024       2.47262815       0.00563890
H        1.71651698       3.12946885      -1.17686538
H        2.08487728       3.19212500       0.55108437
H        4.08802744       1.93994839       1.25245440
H        6.10950262       2.24067959      -1.09140961
H        6.36826698       2.69784900       0.70926879
