20
Properties=species:S:1:pos:R:3 -1942.591979597197=T 12.970755=T 13.86153=T -9.1419=T -7.0023=T -9.5=T 0.8801=T -0.0843=T 1.339=T 8.96971=T -0.76304=T 6.639946244=T 0.441939228=T pbc="F F F"
C        0.87145770      -0.16953905      -0.06687243
C        2.40796170      -0.19746939       0.03639522
C        2.83898400      -0.99980816       1.27238071
N        3.04742228      -0.83751760      -1.13804102
C        2.97374490       1.24948748       0.08698201
C        2.52533119       2.09008217       1.24524769
C        1.83813355       3.23445646       1.14469733
H        0.55271116       0.37124795      -0.97178264
H        0.41073186       0.32968544       0.79885551
H        0.47265770      -1.19404400      -0.12478988
H        2.41050068      -0.58403553       2.19450974
H        3.93462018      -1.01284065       1.35920413
H        2.49248677      -2.04200957       1.19036227
H        2.74705174      -0.35347231      -1.99062125
H        2.69610717      -1.79647576      -1.22700750
H        2.70692702       1.76033712      -0.85486895
H        4.07342681       1.15544690       0.09872613
H        2.80634213       1.73619814       2.24396882
H        1.54134261       3.63690152       0.17208944
H        1.55459886       3.81105885       2.02671466
