10
Properties=species:S:1:pos:R:3 -1181.750613558326=T 10.252=T 10.47936=T -9.3516=T -7.345=T -9.005=T 0.4145=T -1.2488=T -0.513=T 8.58776=T 1.1171=T 4.1409588196=T 6.4463545036=T 0.446037992=T pbc="F F F"
C        0.90380130       0.00860559      -0.00190244
C        2.11914003       0.03272854      -0.00061880
C        3.53088892       0.03163146       0.00085594
C        4.39808419       1.09986291       0.00197704
O        5.67436263       0.67537568       0.00332512
N        5.68686598      -0.73986157       0.00287804
C        4.42171645      -1.09342297       0.00161391
H       -0.16670264      -0.00817832      -0.00303179
H        4.24326553       2.17428152       0.00201764
H        4.16239761      -2.14938284       0.00113535
