16
Properties=species:S:1:pos:R:3 -1679.6825461782694=T 12.594318=T 12.44156=T -8.3806=T -6.3471=T -8.214=T 0.7415=T -0.7484=T 0.429=T 7.68972=T 0.12475=T 4.9664700062=T 0.618312681=T pbc="F F F"
N        1.06027266       0.02038427       0.11654154
C        2.52981276      -0.04906454      -0.01903425
C        2.92336700      -1.28162833      -0.88097818
C        3.38781096      -0.68816610      -2.18321158
C        3.43881121       0.65952552      -2.13442929
C        3.01981107       1.15422690      -0.82952842
C        3.04526112       2.42657706      -0.38840231
H        0.79761856       0.93916863       0.48354492
H        0.74480486      -0.67151877       0.80231627
H        3.05532168      -0.07520706       0.95556430
H        2.05979508      -1.95377612      -1.01561750
H        3.72486361      -1.87590532      -0.40851872
H        3.65984960      -1.29426651      -3.04875273
H        3.76322912       1.31160565      -2.94657522
H        2.74041393       2.68543783       0.62758750
H        3.37696677       3.24496689      -1.02928634
