10
Properties=species:S:1:pos:R:3 -1089.0805466428355=T 12.202689=T 13.0204=T -8.4044=T -6.6093=T -8.989=T 0.6382=T -0.4333=T 0.017=T 8.44778=T 0.61617=T 3.7610409184=T 6.1630464936=T 0.376574372=T pbc="F F F"
Cl       0.94048112       0.06025683      -0.01097601
C        2.66895210       0.01604277      -0.00189752
C        3.51182345       1.11412841       0.00384625
N        4.80108224       0.63269560       0.01010202
C        4.80572416      -0.74351500       0.00851162
C        3.48354899      -1.15343413       0.00103365
Cl       2.92594304      -2.79006428      -0.00386293
H        3.28467092       2.17313200       0.00388119
H        5.63250312       1.21179555       0.01515947
H        5.72024085      -1.32378775       0.01265225
