11
Properties=species:S:1:pos:R:3 -1177.6469604668885=T 10.461737=T 11.29559=T -9.3816=T -7.5429=T -10.052=T 0.7703=T -0.9106=T -0.644=T 9.41842=T 1.21356=T 4.4344460802=T 10.1300529552=T 0.270052187=T pbc="F F F"
C        0.95034388       0.04488909      -0.00491784
C        2.43914248      -0.01986350      -0.00147120
N        3.17167270       1.08031667       0.00042044
O        4.52171044       0.65354160       0.00302578
C        4.55288285      -0.69517628       0.00297422
C        3.27682423      -1.17841490       0.00012532
Cl       2.76519860      -2.83021217      -0.00103070
H        0.62217596       1.09021280       0.00001323
H        0.53886200      -0.46505311       0.87734547
H        0.54341507      -0.45494740      -0.89509651
H        5.52919179      -1.16834281       0.00508180
