15
Properties=species:S:1:pos:R:3 -1495.1039369122764=T 10.979483=T 11.82435=T -8.7607=T -6.7068=T -8.951=T 0.9938=T 0.0587=T 1.314=T 8.47548=T -0.68778=T 6.1702004858=T 0.466933923=T pbc="F F F"
C        0.73974113       0.18219670       0.12242546
C        2.18542480       0.24927920       0.50733204
C        3.20379254       0.43170880      -0.34659616
C        4.62537635       0.48294148       0.04827226
C        5.70583037      -0.09914657      -0.80927907
N        5.51063871       1.36069637      -0.77035202
H        0.29293604      -0.78341695       0.41007780
H        0.60435457       0.31252036      -0.96039628
H        0.15485024       0.96179340       0.63695409
H        2.41172690       0.13886640       1.57541793
H        3.00528617       0.55562553      -1.41759547
H        4.80993441       0.45029073       1.12767680
H        5.43648155      -0.56754060      -1.75934700
H        6.56849471      -0.54168608      -0.30376907
H        6.21530149       1.78937124      -0.16178130
