20
Properties=species:S:1:pos:R:3 -1939.5344939664335=T 12.340636=T 13.86654=T -9.0158=T -6.9805=T -10.625=T 0.86=T -0.0613=T 2.839=T 10.02132=T -2.50078=T 8.3798045862=T 11.2713564838=T 0.144209466=T pbc="F F F"
C        2.27284957      -1.21566747      -0.71416590
C        1.90113534       0.13742218      -0.09542602
C        3.09701035       0.98991201       0.31629834
C        3.94233678       0.41850276       1.43795411
N        3.86603601       1.66606321      -0.76523460
C        2.97922489       2.46941322       0.11488969
C        3.63086549       3.52314033       0.97746298
H        1.37370713      -1.75022697      -1.05147277
H        2.79179356      -1.86546575       0.00448623
H        2.93391718      -1.08915818      -1.58489586
H        1.25822869      -0.02602054       0.78741785
H        1.29195358       0.71227688      -0.81412487
H        4.80181984       1.06198092       1.65698327
H        4.33786451      -0.57066640       1.16410826
H        3.34635517       0.30398232       2.35707136
H        3.40328329       1.50380124      -1.66701064
H        2.02343870       2.78704676      -0.32118563
H        4.60578396       3.19007227       1.35412491
H        2.99221780       3.78170078       1.83591827
H        3.79870818       4.44052045       0.39331102
