13
Properties=species:S:1:pos:R:3 -1443.712495822996=T 11.973967=T 12.84959=T -9.6711=T -7.6947=T -9.926=T -0.0938=T -1.8502=T -0.656=T 9.59771=T 1.26924=T 3.4497120724=T 6.1594632982=T 0.331624408=T pbc="F F F"
O        0.92301537       0.23266446      -0.58595677
C        2.02057140       0.23136993      -0.03581270
C        2.92463957       1.34133496      -0.02375588
C        3.73043128       2.26240946       0.00275189
C        4.63470426       3.36114831       0.00523907
C        4.69474899       4.28369055      -1.21687861
C        4.07765058       4.78843790       0.04506854
H        2.39367715      -0.67004886       0.50838861
H        5.57821613       3.19929099       0.53062417
H        4.03661057       4.03129244      -2.04703732
H        5.68639773       4.63852692      -1.49647635
H        4.63359424       5.49955121       0.65552628
H        2.99358274       4.88309173       0.08554907
