13
Properties=species:S:1:pos:R:3 -1355.2288138680462=T 9.699094=T 10.02629=T -8.7676=T -6.685=T -9.502=T 0.8038=T -1.2034=T -0.153=T 9.05087=T 0.80691=T 3.6510529378=T 11.6574612864=T 0.159872793=T pbc="F F F"
O        1.66990864      -0.59358441      -0.74625370
C        2.02190695       0.17232640       0.12825959
C        3.12311438       1.21900477      -0.02004586
C        3.57199486       1.47029893      -1.47187084
C        3.47499141       2.97273685      -1.54625404
N        2.96193111       3.53044963      -0.50390732
N        2.56874468       2.54339853       0.40118521
H        1.53116347       0.16659362       1.13409484
H        3.96335709       0.91067392       0.63193419
H        2.88289575       0.97039409      -2.17382803
H        4.58191325       1.09710139      -1.69138070
H        3.76458799       3.58464868      -2.39985632
H        2.78916043       2.83846760       1.35192297
