18
Properties=species:S:1:pos:R:3 -1802.21694882426=T 11.318487=T 12.40462=T -8.6967=T -6.6265=T -10.366=T 0.9142=T 0.0059=T 2.918=T 9.75196=T -2.58338=T 8.3729109646=T 11.5570574236=T 0.139775558=T pbc="F F F"
C        0.96507651       0.14137026       0.26353281
C        2.46162686      -0.05977423      -0.00838295
C        2.82032702      -1.48205789      -0.51877053
C        3.00217948      -1.33577871      -2.04134588
N        3.47282647       0.05800449      -2.28782401
C        2.35402858       1.01742714      -2.39248664
C        3.05800062       0.84826941      -1.09283552
H        0.74050893       1.19165057       0.50055853
H        0.64184057      -0.47190709       1.11774313
H        0.34731341      -0.14511036      -0.60041138
H        3.00097765       0.13837270       0.93136293
H        2.06018732      -2.23163983      -0.25205628
H        3.77149095      -1.80362433      -0.06848416
H        3.75656204      -2.03291660      -2.43374575
H        2.06216210      -1.52848430      -2.58562758
H        2.55503975       1.89602113      -3.01150387
H        1.34196824       0.61280134      -2.49096086
H        3.76941350       1.61624630      -0.77602200
