17
Properties=species:S:1:pos:R:3 -1670.3387853844777=T 11.272074=T 12.33146=T -9.5977=T -7.3699=T -9.383=T 1.1626=T -0.1883=T 1.305=T 8.79147=T -0.68158=T 6.483785877=T 0.406761047=T pbc="F F F"
C        1.37093041      -0.22811474       0.17579181
O        2.78861751      -0.17944586       0.11249856
C        3.26349573       1.15459632       0.04051555
C        4.76601552       1.20326506      -0.02211675
C        5.53931386       0.11271471       0.07335825
C        5.35494354       2.57839017      -0.21844634
O        5.01584685       3.15251176      -1.49549101
H        1.08649421      -1.28673096       0.22245761
H        0.90814220       0.23178410      -0.71765680
H        0.98639008       0.28902446       1.07533547
H        2.92337603       1.73263660       0.92869987
H        2.84327400       1.67277019      -0.84593673
H        5.10529475      -0.87865145       0.20125604
H        6.62712306       0.19687064       0.03129448
H        6.44956101       2.53387285      -0.07990851
H        4.95158364       3.28810520       0.52176457
H        5.34560761       2.53801095      -2.17617607
