11
Properties=species:S:1:pos:R:3 -1210.0403228272476=T 8.49773=T 8.92249=T -9.11=T -6.9352=T -8.559=T 1.5368=T -0.1969=T 0.225=T 8.18198=T 0.39267=T 4.374350066=T 9.5210957162=T 0.266179274=T pbc="F F F"
C        0.97721367      -0.03593300      -0.00688903
C        2.45450903       0.09308274       0.00011437
C        3.33711278       1.13388806       0.00208370
N        4.64456429       0.65102187       0.00862500
C        4.50299709      -0.63988843       0.01040852
O        3.20278345      -1.07279395       0.00549614
H        0.52111814       0.96133695      -0.00015589
H        0.61781429      -0.58603103       0.87543314
H        0.62441275      -0.57087217      -0.90121243
H        3.12056955       2.19799211      -0.00079144
H        5.26954496      -1.40854316       0.01549793
