14
Properties=species:S:1:pos:R:3 -1413.0423449626066=T 9.540127=T 10.48832=T -8.9334=T -6.8356=T -10.282=T 1.0592=T -0.1737=T 0.407=T 9.77979=T 0.19608=T 5.950646077=T 10.0155022898=T 0.15127336=T pbc="F F F"
C        0.99943273      -0.03408637      -0.08762896
C        2.51771781       0.13053165       0.08285991
C        2.94958471       1.55428252       0.03726515
N        3.49079355       2.20160777       1.00949153
O        3.62267443       3.56083140       0.53804404
C        3.44219125       3.49526990      -0.87498241
O        2.70931725       2.27594095      -1.10781546
H        0.73016783      -1.09790688      -0.05196677
H        0.66125321       0.37309625      -1.04952007
H        0.45752000       0.48466733       0.71487430
H        3.04641898      -0.41987451      -0.71196893
H        2.85101340      -0.27578583       1.04681635
H        4.41748526       3.42660405      -1.39915730
H        2.85208960       4.35727177      -1.21514140
