15
Properties=species:S:1:pos:R:3 -1514.1294063063722=T 10.484569=T 11.07338=T -8.9668=T -6.9423=T -9.854=T 0.7745=T -1.2552=T -0.378=T 9.11489=T 1.01406=T 3.689265423=T 6.354716451=T 0.175279388=T pbc="F F F"
N        1.54797962      -1.13402581      -0.63353048
C        1.96674098      -0.27162627       0.36668855
N        1.51956923      -0.18948333       1.57446356
C        3.04725045       0.70991368      -0.06161661
C        4.47151980       0.16789979       0.11582521
C        4.95206434      -0.82329770      -0.90768642
O        4.29256166      -1.27223942      -1.83273361
H        2.22398029      -1.31114676      -1.37826271
H        1.00720978      -1.94454824      -0.34295842
H        0.81205154      -0.91588966       1.75834295
H        2.92984281       1.59832879       0.56993761
H        2.89502715       1.00808023      -1.11005285
H        4.59695299      -0.29868439       1.11038912
H        5.20895555       0.99168237       0.10812954
H        6.01755380      -1.14261328      -0.77794543
