17
Properties=species:S:1:pos:R:3 -1641.190753603979=T 10.564896=T 11.5693=T -8.5718=T -6.5035=T -10.096=T 0.9414=T 0.0106=T 3.203=T 9.38133=T -2.97964=T 8.2521733978=T 10.2977936146=T 0.106987718=T pbc="F F F"
C        0.92936609      -0.04569609       0.10945760
C        2.44145670       0.03964572       0.00039552
C        3.19465002       1.10704407       0.83812905
C        4.19737923      -0.01758792       1.21132914
C        5.50861664       0.01123830       0.43290661
N        3.19090374      -1.01967957       0.74300378
H        0.54743561      -0.94334369      -0.39998634
H        0.45347307       0.83280852      -0.35326932
H        0.62607506      -0.09945160       1.16511284
H        2.73173112       0.10567359      -1.06659618
H        2.60170104       1.45280003       1.69618434
H        3.60263350       1.97313742       0.30080860
H        4.41255162      -0.11805899       2.28923576
H        5.33328736       0.15679999      -0.64449955
H        6.06341273      -0.93048388       0.56647152
H        6.15590550       0.82971990       0.78500844
H        3.58084096      -1.76268582       0.15580817
