16
Properties=species:S:1:pos:R:3 -1600.4528609276695=T 10.673514=T 11.33933=T -9.1272=T -7.1028=T -10.41=T 1.0634=T -0.1889=T 0.485=T 9.9269=T 0.12943=T 5.1259779952=T 9.2930110706=T 0.220349871=T pbc="F F F"
C        0.96382821       0.03546653       0.44767117
C        2.43729435      -0.00788960       0.04687234
C        2.81935017       1.16697542      -0.84631440
O        4.22816260       1.18578970      -1.16589688
N        4.77240003      -0.01704968      -1.64946498
C        4.09833887      -1.10046743      -1.46976221
C        2.80611887      -1.27966074      -0.72330046
H        0.73206722       0.93956878       1.02971218
H        0.69597169      -0.83657111       1.06211711
H        0.31327779       0.02943659      -0.44122206
H        3.06398087       0.05006342       0.95307266
H        2.64152064       2.13727427      -0.36155337
H        2.24308718       1.12997675      -1.79125108
H        4.59731045      -1.98040967      -1.88846261
H        2.00271502      -1.54756362      -1.43396614
H        2.90679603      -2.14254961      -0.04461127
