16
Properties=species:S:1:pos:R:3 -1624.2003103759002=T 10.91569=T 11.52962=T -8.4731=T -6.4063=T -9.04=T 0.9138=T -0.0549=T 1.233=T 8.59454=T -0.67398=T 5.9310686876=T 0.231057944=T pbc="F F F"
C        0.98312584       0.00221070       0.03675219
C        2.49431955      -0.04980233      -0.10987880
O        2.83646033      -1.20048964      -0.96440606
C        3.29787760      -0.67196117      -2.14070410
C        3.43756357       0.66165692      -2.16617622
C        3.11050330       1.21361423      -0.80056678
N        4.29986010       1.82179691      -0.18730239
H        0.69811883       0.81351236       0.72308468
H        0.59454164      -0.94356236       0.43723730
H        0.51012743       0.19008228      -0.93822254
H        2.97983112      -0.23714732       0.86137438
H        3.49881050      -1.41014988      -2.91623448
H        3.80194804       1.25547755      -2.99902774
H        2.34333637       2.00696492      -0.84753674
H        5.04459590       1.12353538      -0.11066761
H        4.08891988       2.15159146       0.75857491
