13
Properties=species:S:1:pos:R:3 -1345.8814684035892=T 10.061892=T 10.83881=T -9.9279=T -7.8478=T -10.714=T 1.1884=T -0.5398=T 0.151=T 10.12825=T 0.54708=T 5.3602123464=T 11.9922854794=T 0.264714271=T pbc="F F F"
C        1.14479951       0.02059136      -0.38142364
C        2.60137947       0.15207848      -0.07081736
C        3.58128825      -0.96852484      -0.38788167
C        2.98290841      -2.14051505      -1.01127080
N        2.50346909      -3.07938114      -1.51004392
N        2.99890596       1.24725504       0.47700464
O        4.39992360       1.22797001       0.71431304
H        0.61609287       0.93100480      -0.07824636
H        0.71033523      -0.84463832       0.14171167
H        0.98818160      -0.15018455      -1.45734444
H        4.09405377      -1.27182930       0.54017343
H        4.37929139      -0.57620411      -1.04023345
H        4.54151086       2.10249761       1.11761886
