12
Properties=species:S:1:pos:R:3 -1296.8408732048451=T 8.848225=T 9.39727=T -10.299=T -8.2305=T -11.394=T 0.3897=T -1.4354=T -0.365=T 10.96864=T 0.96952=T 4.3456845028=T 6.4848025622=T 0.182502534=T pbc="F F F"
C        0.94190328      -0.00127779      -0.05483636
C        2.47639088      -0.02504583       0.01114922
C        3.15019669      -1.18715188      -0.63352614
N        3.99532747      -0.88012457      -1.55357146
O        4.02107980       0.55669021      -1.67201314
C        3.12144076       1.11864508      -0.76943110
O        2.94326167       2.30825897      -0.69569439
H        0.57660796       0.96273729       0.32127779
H        0.51423428      -0.80442739       0.55876978
H        0.59181116      -0.12526854      -1.08787748
H        2.79674666       0.06767698       1.06386495
H        2.99820939      -2.24352253      -0.40618168
