14
Properties=species:S:1:pos:R:3 -1375.4921806910402=T 11.3951=T 11.50498=T -8.7787=T -6.8391=T -9.304=T 0.8215=T -0.8539=T 0.378=T 8.91742=T 0.33273=T 4.5031963172=T 5.5741377908=T 0.695660598=T pbc="F F F"
C        0.76454321       0.19488575      -0.03576848
C        2.24206082       0.02290518      -0.10504883
N        3.03728687       0.90900245       0.38313377
N        4.39450397       0.54440598       0.20852191
C        5.18979565       1.43136847       0.69501962
C        6.66730707       1.25949751       0.62529307
H        0.30443209      -0.64670672       0.50603599
H        0.32886398       0.18799038      -1.04755053
H        0.50431901       1.13485688       0.46507537
H        2.65421701      -0.88092448      -0.58344181
H        4.77772322       2.33588527       1.17218920
H        6.92738876       0.31807253       0.12711103
H        7.10370818       1.26966473       1.63672606
H        7.12684015       2.09949608       0.08051363
