17
Properties=species:S:1:pos:R:3 -1680.314111017406=T 11.222447=T 12.28121=T -8.935=T -6.8561=T -9.396=T 0.8689=T -0.0851=T 1.127=T 8.82679=T -0.55973=T 6.276233313=T 0.347933442=T pbc="F F F"
C        4.67320567       1.04021465      -1.97354492
C        5.85962057       1.59260978      -1.20984001
O        5.82581915       3.02782855      -1.30697121
C        6.78892801       3.72739750      -0.62457213
C        7.80408758       3.20241250       0.08271113
C        6.54637048       5.20415573      -0.80043055
O        5.24169398       5.61058162      -0.37285669
H        4.68010849      -0.05740450      -1.92580130
H        4.71196278       1.33946354      -3.02967035
H        3.72761547       1.39678637      -1.54280671
H        6.81278162       1.22748147      -1.63160550
H        5.82378680       1.30496953      -0.14438093
H        7.98799195       2.13369500       0.16911774
H        8.48886519       3.87320368       0.59742039
H        6.70522924       5.46613410      -1.86499191
H        7.26709083       5.76967198      -0.19656365
H        4.61065218       5.01171850      -0.81235340
