15
Properties=species:S:1:pos:R:3 -1465.4060493456157=T 10.261541=T 10.76976=T -9.2068=T -7.0631=T -10.419=T 1.0515=T -0.5436=T 0.44=T 10.01711=T 0.1438=T 5.3074315062=T 6.3125116166=T 0.147282018=T pbc="F F F"
C        2.32571301      -0.38333830      -1.66218990
N        2.36431043       0.11999570      -0.28783485
C        3.37140004       1.17546490      -0.08591943
C        3.46808364       1.61574015       1.37877319
O        2.82580575       2.93073974       1.45591520
N        2.60992529       3.39868513       0.15864158
C        2.92412573       2.48905585      -0.69330687
H        1.66104555      -1.25595339      -1.70668749
H        3.31846492      -0.67756308      -2.06359318
H        1.90391126       0.38142726      -2.33017146
H        2.59467126      -0.65497971       0.33948611
H        4.36635606       0.88030982      -0.48537846
H        4.50987640       1.73796847       1.70957761
H        2.92774360       0.94410717       2.06019050
H        2.80926705       2.70442027      -1.75430256
