18
Properties=species:S:1:pos:R:3 -1744.515522528312=T 11.289367=T 12.4128=T -8.6912=T -6.5732=T -9.919=T 0.8352=T -0.1405=T 2.694=T 9.46347=T -2.34067=T 7.8200573906=T 11.361581096=T 0.232710006=T pbc="F F F"
C        0.82419594       0.22813937      -0.30566422
C        2.29028574       0.13231610       0.07100257
C        2.58282982       0.20679655       1.55347182
O        2.27953912      -0.99446191       2.28320125
C        3.17960678      -0.76555577      -0.77440685
C        3.31041845       0.72280928      -0.91974981
N        4.55654010       1.37295336      -0.58991498
H        0.69455545       0.22815045      -1.39797273
H        0.37007790       1.15275541       0.08652710
H        0.24125921      -0.62576808       0.08031976
H        2.04009125       1.06816970       1.99159848
H        3.65529579       0.37797727       1.72859129
H        1.33443913      -1.18663202       2.15434941
H        2.72689516      -1.34119311      -1.58352346
H        3.98366246      -1.28913734      -0.25137064
H        2.84904595       1.15493724      -1.81456090
H        5.11902682       0.81091273       0.04945915
H        4.40179495       2.28421078      -0.15232726
