16
Properties=species:S:1:pos:R:3 -1606.3197384282762=T 10.686562=T 11.48675=T -8.7872=T -6.742=T -9.971=T 0.8703=T -0.2884=T 0.676=T 9.45811=T 0.0000800000000254=T 5.4543053218=T 6.1228502324=T 0.162239268=T pbc="F F F"
C        0.96617841       0.05387533      -0.02243216
C        2.49906400      -0.03731638      -0.02750608
C        3.06179231      -1.29775626       0.65001519
O        3.96031418      -0.82665705       1.70897908
N        3.94990021       0.57745307       1.73021929
C        3.17873316       1.03414009       0.80573064
C        3.01260368       2.50221663       0.59771047
H        0.52665894      -0.78131149      -0.58590645
H        0.61693264       0.98638671      -0.48766397
H        0.57717903       0.01507184       1.00579469
H        2.85279681       0.04508088      -1.07077180
H        3.65156653      -1.93359308      -0.02555711
H        2.27394810      -1.90487454       1.12396412
H        3.32656768       2.79070309      -0.41816954
H        3.61684122       3.05715552       1.32436420
H        1.96067309       2.80592565       0.70887945
