15
Properties=species:S:1:pos:R:3 -1532.5416843333287=T 14.726654=T 13.64531=T -8.7643=T -6.9373=T -8.744=T -0.1671=T -1.7355=T -0.39=T 8.30698=T 1.0789=T 4.2546539816=T 4.7496680866=T 1.058873906=T pbc="F F F"
C        1.45786296       3.19412343      -0.57914583
C        2.67177467       2.44957718      -0.14752394
N        3.85109440       2.85670586      -0.47410709
N        4.85330226       2.01249415       0.03365776
C        6.03640077       2.42205900      -0.30363994
C        7.21349547       1.69354761       0.11766594
C        8.46304675       2.07689183      -0.20672772
H        0.86905695       3.50987452       0.29681114
H        0.80010292       2.54284806      -1.17663566
H        1.73162628       4.07562242      -1.17078410
H        2.55525932       1.53719440       0.45993243
H        6.15780053       3.33031583      -0.91548034
H        7.03700261       0.80036757       0.72301010
H        8.64337710       2.96863035      -0.81144708
H        9.33577701       1.51261779       0.12170432
