17
Properties=species:S:1:pos:R:3 -1635.975044787968=T 10.446612=T 11.4234=T -8.7154=T -6.5037=T -10.192=T 0.9556=T 0.0182=T 3.142=T 9.51943=T -2.85006=T 8.3614050638=T 10.6097175934=T 0.115660497=T pbc="F F F"
C        2.24215709      -0.53561294      -1.44929613
C        2.42151158       0.08634019      -0.06259875
C        3.38538401       1.27116385      -0.05430921
C        2.80559617       2.59548585      -0.62859666
N        2.50957375       3.04018011       0.76089494
C        3.46572545       2.03321373       1.29690081
H        1.53023142      -1.37290379      -1.42327586
H        3.19723216      -0.92072595      -1.83872473
H        1.86021736       0.19940463      -2.17415539
H        2.79704774      -0.67934505       0.63817354
H        1.44711412       0.41950163       0.33265405
H        4.35664795       0.97162171      -0.47619548
H        1.91696803       2.51846350      -1.27763960
H        3.57533428       3.19505741      -1.14900898
H        2.74623843       4.01351312       0.96345756
H        4.48154830       2.42279683       1.49480941
H        3.10689215       1.49968518       2.19318048
