18
Properties=species:S:1:pos:R:3 -1785.7626833728707=T 12.04775=T 13.49646=T -8.8486=T -6.8637=T -10.345=T 1.0325=T 0.168=T 3.295=T 9.64599=T -2.96193=T 8.472645303=T 11.091601581=T 0.410290625=T pbc="F F F"
C        1.06843323       0.39006188      -0.41553169
C        2.49088409       0.01732148      -0.07939893
C        3.18838252      -1.14440813      -0.70987876
N        3.51442010       0.23377931      -1.11346763
C        4.78871013       0.73245576      -0.65333364
C        5.85951191       0.95477638      -1.69007037
C        5.16522993       2.13756916      -1.04701653
H        0.89550135       1.46580873      -0.26084586
H        0.35903761      -0.16293018       0.21869300
H        0.84982304       0.15787474      -1.46679173
H        2.80408980       0.23987215       0.94938485
H        2.67489110      -1.74560528      -1.46521000
H        3.92419644      -1.68461940      -0.10460548
H        5.12092932       0.38726229       0.33794591
H        5.58871656       0.72144462      -2.71973580
H        6.89399541       0.74331054      -1.41860773
H        5.71982125       2.74309726      -0.32981937
H        4.44230620       2.67946870      -1.65710021
