15
Properties=species:S:1:pos:R:3 -1606.8169522970668=T 11.312317=T 11.7491=T -8.4971=T -6.4007=T -9.047=T 1.1174=T -0.2787=T 1.177=T 8.77655=T -0.62601=T 5.9873211358=T 0.275345495=T pbc="F F F"
C        0.96116004       0.05873009       0.50234936
C        2.19282982      -0.03581221      -0.01358110
C        3.00661446       1.17800491      -0.36896777
O        4.28881118       1.20578247       0.31195038
C        4.93433358      -0.00170189       0.32214668
C        4.38115030      -1.18801384       0.02171436
C        2.91209898      -1.33483842      -0.28445338
H        0.49591308       1.02961247       0.68547270
H        0.37462364      -0.82841980       0.75017035
H        2.50196936       2.11075290      -0.08866301
H        3.21320462       1.18921969      -1.45592675
H        5.97776425       0.11592688       0.61953169
H        5.01350879      -2.07535365       0.04852674
H        2.76589966      -1.63029326      -1.34187663
H        2.46995826      -2.14300634       0.31993638
