20
Properties=species:S:1:pos:R:3 -1884.4766455523136=T 12.05106=T 13.18939=T -8.7567=T -6.735=T -9.869=T 0.8568=T -0.0682=T 3.055=T 9.06013=T -2.76723=T 7.6941248104=T 13.3070826178=T 0.096743353=T pbc="F F F"
C        1.22814261      -0.75575127       0.08847644
C        2.71541474      -0.73685746      -0.22856380
O        2.88875084      -0.55920859      -1.63634699
C        3.44927041       0.39113910       0.51082781
N        4.81551220       0.54845362      -0.00703854
C        5.35265825       1.88113353       0.26266723
C        5.72179413      -0.48459292       0.49675030
H        1.05798257      -0.92760552       1.16149987
H        0.73309967      -1.55999872      -0.47205808
H        0.76277788       0.19894240      -0.19814397
H        3.14971429      -1.71234556       0.07815160
H        3.77980426      -0.14766294      -1.70980400
H        3.43220315       0.21340284       1.60884211
H        2.90991731       1.33168884       0.31389241
H        4.68461373       2.64322157      -0.16122136
H        6.33836636       1.98410224      -0.21353423
H        5.47242504       2.08531867       1.34907617
H        5.34794876      -1.48330092       0.23538511
H        5.84541023      -0.43613990       1.60079186
H        6.71081357      -0.36237899       0.03307007
