17
Properties=species:S:1:pos:R:3 -1811.8696865144427=T 12.678907=T 13.56837=T -7.776=T -5.8168=T -7.854=T 1.0185=T -0.461=T 0.772=T 7.31378=T -0.16596=T 4.4134800476=T 6.8144689376=T 0.561700197=T pbc="F F F"
C        0.93848999       0.05952224      -0.00050459
C        2.43198733       0.01620005       0.00241876
C        3.30852946       1.05383451       0.00380963
C        4.69401081       0.56196404       0.00236156
C        5.90479143       1.45555997       0.00426954
C        4.66267798      -0.79753174       0.00075330
C        3.23458979      -1.26200808       0.00159419
H        0.56989225       1.09429103       0.00064043
H        0.51494382      -0.45020751       0.88083902
H        0.51920260      -0.44648839      -0.88608342
H        3.03914462       2.11226795       0.00424466
H        5.62033216       2.51556284      -0.04115188
H        6.55850601       1.24939381      -0.85599621
H        6.50800955       1.31361773       0.91345762
H        5.52223610      -1.46693226      -0.00080333
H        2.99742264      -1.88719173      -0.87894436
H        2.99847343      -1.88684445       0.88271508
