16
Properties=species:S:1:pos:R:3 -1614.869135733791=T 10.99161=T 11.70892=T -9.2267=T -7.0064=T -9.288=T 0.9341=T -0.4245=T 1.241=T 8.70475=T -0.59576=T 6.3156484624=T 0.380188634=T pbc="F F F"
N        0.96075682       0.10883019       0.06665024
C        2.42368942       0.04047646       0.01849795
C        3.11221954       1.11727352       0.88287769
O        4.41769746       0.59374020       1.14903071
C        4.22464446      -0.80194373       1.42464371
C        3.01547971      -1.22680440       0.61443096
C        2.54555774      -2.47003024       0.47891530
H        0.55581789      -0.81957359      -0.06467537
H        0.60635318       0.69331104      -0.69233387
H        2.82434609       0.13090919      -1.01218662
H        2.52565046       1.25445390       1.81235712
H        3.23865138       2.08704314       0.38312240
H        5.14828064      -1.33323767       1.15315624
H        4.03335567      -0.95882164       2.50540630
H        1.65628692      -2.69020374      -0.11607679
H        3.03282262      -3.32314265       0.95406404
