11
Properties=species:S:1:pos:R:3 -1283.7989349822813=T 10.766694=T 11.55347=T -9.9146=T -7.7904=T -10.165=T -0.3894=T -2.193=T -0.722=T 9.72549=T 1.35421=T 3.5262982246=T 6.7972100864=T 0.123351032=T pbc="F F F"
O        2.66093456       1.05193827       0.77575491
C        2.47645832       0.16663461      -0.04639597
C        3.00501743      -1.26297953       0.17565702
C        2.03523837      -2.31030711      -0.10036272
C        1.20823937      -3.17079782      -0.31698309
C        1.79229167       0.41686725      -1.29767735
C        1.23825143       0.65306929      -2.35305151
H        3.36429770      -1.31024693       1.21409002
H        3.88364649      -1.38188987      -0.48384969
H        0.48161595      -3.93377188      -0.50825870
H        0.74047870       0.86287371      -3.27884292
