21
Properties=species:S:1:pos:R:3 -1945.2218040821417=T 12.794039=T 13.95128=T -8.2537=T -6.2057=T -9.685=T 0.9136=T -0.0263=T 3.303=T 8.92411=T -3.01587=T 7.719058395=T 12.1038480822=T 0.148250837=T pbc="F F F"
C        0.90239182      -0.35960937       0.42500749
N        2.30019030      -0.72540091       0.22617302
C        2.42406863      -1.67176105      -0.87709746
C        3.12140727       0.47453281       0.02210720
C        4.63112490       0.22877602       0.06682522
C        5.12249324      -0.37691222       1.38109243
N        6.59549227      -0.44133175       1.39452972
H        0.81255264       0.31123890       1.29171322
H        0.30704530      -1.26186525       0.62752279
H        0.45679663       0.15487194      -0.45766169
H        1.79821829      -2.55288293      -0.67522209
H        3.46218399      -2.01656219      -0.97705093
H        2.10718613      -1.23934142      -1.85452298
H        2.85818169       1.18380886       0.82492590
H        2.86135877       0.97603413      -0.94077675
H        5.14164178       1.19263805      -0.08894496
H        4.94160919      -0.41419640      -0.77549758
H        4.62178334      -1.35014390       1.54255802
H        4.81019026       0.27727410       2.21294426
H        6.91430648      -1.09732065       0.67520312
H        6.91373710      -0.83236677       2.28460204
