9
Properties=species:S:1:pos:R:3 -1111.9582542439935=T 9.521941=T 10.80941=T -11.6709=T -9.2424=T -10.817=T 0.7083=T -0.9109=T 0.336=T 10.40022=T -0.14112=T 4.4103432018=T 8.6212797198=T 0.100949189=T pbc="F F F"
C        0.93837235      -0.01265305       0.01287786
C        2.14696874       0.00650603      -0.01299711
C        3.61424025       0.02382540      -0.03383660
C        4.15846602      -0.72269671      -1.18826442
N        4.59166112      -1.33775987      -2.07670739
C        4.15008369       1.40148592      -0.00219355
N        4.57620641       2.48326427       0.05667459
H       -0.13273131      -0.03036747       0.03697833
H        3.99003273      -0.48317452       0.87678829
