18
Properties=species:S:1:pos:R:3 -1745.6632479484113=T 12.227467=T 13.37569=T -8.5292=T -6.47=T -9.035=T 0.9726=T 0.0089=T 1.281=T 8.5699=T -0.71606=T 6.1015866334=T 0.319340592=T pbc="F F F"
C        0.75639210       1.92728380       0.59683170
C        2.15940187       2.48614010       0.47231455
O        3.04905431       1.39473141       0.17470348
C        4.36674411       1.70980409       0.02315401
C        4.96123117       2.91198528       0.12440221
C        6.43797179       3.08255779      -0.07673883
N        6.70341143       4.02440484      -1.18230877
H        0.05093018       2.73867624       0.82300148
H        0.70060204       1.18509472       1.40463891
H        0.44216115       1.44693841      -0.33970114
H        2.48506598       2.97052700       1.41030829
H        2.22397135       3.23491866      -0.33717263
H        4.94078552       0.80561262      -0.19958810
H        4.39075956       3.81941758       0.33031055
H        6.90349200       2.08359097      -0.20494132
H        6.88781493       3.52353131       0.83012500
H        6.36885639       3.61686945      -2.05966024
H        7.71155413       4.16380573      -1.28762916
