19
Properties=species:S:1:pos:R:3 -1838.0831754394503=T 12.068575=T 13.01992=T -8.8292=T -6.8523=T -9.775=T 0.7707=T -0.1789=T 1.127=T 9.00321=T -0.49971=T 4.9122757256=T 6.3459258436=T 0.181571962=T pbc="F F F"
C        2.98967735      -0.96827513      -1.01737850
C        2.52222384      -0.04863655       0.11116100
C        3.17223314       1.34839541       0.09261020
C        2.56514652       2.26438073       1.16679270
C        4.69344384       1.25941103       0.26340900
N        5.42672610       1.74547744      -0.80606416
N        5.32015583       0.74765335       1.26723392
H        2.49540625      -1.94810505      -0.95770377
H        4.07545097      -1.13487206      -0.97190207
H        2.75773058      -0.53686943      -2.00341148
H        2.72497036      -0.52211467       1.08779289
H        1.42863759       0.08458259       0.05886813
H        2.96447487       1.79257433      -0.89843550
H        2.72769376       1.85112761       2.17350546
H        1.48095782       2.36925967       1.01573148
H        3.01400665       3.26757222       1.14300146
H        5.00047501       2.45668834      -1.39032871
H        6.41996069       1.86816452      -0.61906145
H        4.65280883       0.36567565       1.94753941
