19
Properties=species:S:1:pos:R:3 -1873.8809326965393=T 11.747565=T 13.38129=T -9.5386=T -7.3861=T -10.955=T 0.8915=T -0.0619=T 2.853=T 10.62305=T -2.50245=T 8.6476391434=T 11.5347151464=T 0.143440903=T pbc="F F F"
C        1.07505297       0.08522512      -0.37423998
C        2.56408075       0.20738330      -0.70116824
C        3.44409880       0.28461346       0.55172437
C        4.91919884       0.47749170       0.25351895
O        5.23162281       1.67461839      -0.44907640
C        5.96314538      -0.04294727       1.21480007
C        5.76825924      -0.69231352      -0.14812298
H        0.46659826       0.03112679      -1.28840312
H        0.72242234       0.95048498       0.20867462
H        0.86592036      -0.81882272       0.21887682
H        2.74381824       1.10248585      -1.31708387
H        2.88515222      -0.65327297      -1.31165875
H        3.31978804      -0.63174880       1.15389776
H        3.09972923       1.11764758       1.19423343
H        5.08978493       2.41555577       0.16832673
H        5.63233952      -0.58387477       2.10300773
H        6.85935373       0.56453176       1.34404119
H        6.53322476      -0.50351989      -0.90102092
H        5.30185959      -1.67733475      -0.19296742
