19
Properties=species:S:1:pos:R:3 -1796.7362563321967=T 12.259643=T 13.67664=T -8.7071=T -6.5255=T -10.122=T 0.9602=T 0.059=T 3.249=T 9.42128=T -2.89903=T 8.1636349952=T 11.7012531416=T 0.137736938=T pbc="F F F"
C        1.31725243       0.27919484      -0.16588243
N        2.58092209       0.81409388       0.33479550
C        3.47956779       1.23596914      -0.73905840
C        4.77530743       1.76879322      -0.17315479
C        5.96073779       0.88570095       0.06880862
N        5.93197826       1.81082246      -1.07018245
C        6.78778824       2.98786912      -0.94661879
H        0.71126954      -0.08495967       0.67536072
H        1.42980367      -0.54747157      -0.89966307
H        0.75052837       1.08426611      -0.65913095
H        3.05263280       0.09990033       0.89599808
H        2.97421538       2.03783204      -1.30647224
H        3.71372316       0.43140678      -1.46988827
H        4.66009708       2.60592550       0.52747859
H        5.91712046      -0.17672198      -0.18824548
H        6.60890275       1.13709207       0.91559972
H        6.38260199       3.79654038      -1.57237055
H        7.79524407       2.74192789      -1.31324142
H        6.87602669       3.36158850       0.09419762
