20
Properties=species:S:1:pos:R:3 -1944.8618753111302=T 13.357435=T 14.61728=T -8.785=T -6.6453=T -8.682=T 0.8719=T -0.0485=T 1.5=T 8.11574=T -0.81026=T 6.03749827=T 0.388257908=T pbc="F F F"
C        0.75007636       0.23390084      -0.17735837
C        2.17406267      -0.25746075      -0.11457083
C        2.32806877      -1.74571215      -0.28647026
C        3.19266333       0.60506873       0.06876542
C        4.66344690       0.31808422       0.15153994
C        5.27754164       0.76977524       1.48467167
N        6.73976712       0.60295515       1.46235166
H        0.68693886       1.32144508      -0.03929350
H        0.13027311      -0.24900256       0.59673840
H        0.28781061      -0.01710865      -1.14680190
H        1.72558316      -2.28602284       0.46263434
H        3.36571190      -2.08891421      -0.19838913
H        1.94941157      -2.06207693      -1.27305620
H        2.92917470       1.66535934       0.17528034
H        5.19665176       0.85269965      -0.65443874
H        4.87169398      -0.75362450       0.00294308
H        4.76931942       0.23155995       2.31060881
H        5.06638075       1.84221290       1.63043358
H        6.97088271      -0.39392028       1.42003455
H        7.14216069       0.94610179       2.33766716
