12
Properties=species:S:1:pos:R:3 -1254.0257974077472=T 8.742194=T 9.06171=T -8.5708=T -6.4999=T -9.182=T 0.8222=T -0.0994=T 0.904=T 8.6203=T -0.32192=T 4.9656888944=T 12.2811356636=T 0.187618695=T pbc="F F F"
C        0.39896016       1.43807951       0.50059277
C        0.94364295       0.37707120      -0.41376644
N        0.93409663      -0.95925243       0.14368624
C       -0.39984970      -1.30155959       0.34428291
N       -1.28394671      -0.40213682       0.05349347
C       -0.56476815       0.74457882      -0.44228987
H        0.65364326       2.46952244       0.25614980
H        0.32356012       1.21056756       1.56588084
H        1.67351195       0.59723089      -1.19254638
H        1.59117826      -1.65716497      -0.19641256
H       -0.64702482      -2.27803209       0.76567777
H       -1.04984395       1.32350548      -1.23029855
