12
Properties=species:S:1:pos:R:3 -1336.9540626641526=T 10.328375=T 11.16293=T -9.6291=T -7.6268=T -10.262=T 0.8609=T -0.2374=T 0.494=T 9.82259=T 0.21866=T 4.3866494772=T 10.9749803494=T 0.403915331=T pbc="F F F"
O        1.27328059      -0.11646637       0.97328426
C        2.32798353      -0.02994321       0.38180901
C        3.25927719       1.12006291      -0.07235174
C        4.16324313      -0.00291813      -0.68885986
N        3.18436138      -0.97560953      -0.15328291
C        4.32519390       0.00216144      -2.13426048
C        4.47770671      -0.00091521      -3.33833853
H        3.71685411       1.69252919       0.74294514
H        2.80634664       1.79151777      -0.81007333
H        5.14736936      -0.08572122      -0.19931497
H        3.07830950      -1.97634493      -0.31665282
H        4.60100396       0.00069730      -4.40236376
