15
Properties=species:S:1:pos:R:3 -1491.7298577595986=T 10.287987=T 10.66018=T -8.6026=T -6.5907=T -9.263=T 1.2495=T -0.373=T 0.519=T 8.7981=T 0.07751=T 5.0670350508=T 5.3107419324=T 0.114320246=T pbc="F F F"
C        0.95437283       0.03303758      -0.10696284
C        2.47695634      -0.03498716      -0.00342605
O        2.97279370       0.09323806      -1.34768541
C        2.98339848      -1.31885146       0.71393665
N        3.27160855      -0.83819585       2.08035080
N        3.49741642       0.53232413       2.05529784
C        3.03650850       1.00895809       0.94543897
H        0.49973468      -0.12039510       0.88080967
H        0.59152154      -0.74599358      -0.79278218
H        0.64126765       1.01153693      -0.49489715
H        3.93773777       0.21701996      -1.28984096
H        3.89534911      -1.68288256       0.20530873
H        2.23771049      -2.12501787       0.72380267
H        4.01697581      -1.31251412       2.58898903
H        3.01604811       2.08347296       0.76320024
