13
Properties=species:S:1:pos:R:3 -1304.9692635581634=T 11.069957=T 11.77513=T -8.3668=T -6.3965=T -9.73=T 0.9625=T -0.0491=T 0.557=T 9.09112=T 0.03555=T 4.4056441324=T 10.4239617682=T 0.469771352=T pbc="F F F"
O        0.68754832       2.66184748       0.01149745
N        2.11444118       2.71898742      -0.10060206
C        2.59298814       1.52093505      -0.08291468
N        3.93706702       1.28464393      -0.28018276
C        4.85221304       2.42969767      -0.27515035
C        6.23688673       1.99942534      -0.40512524
C        7.39229862       1.64032783      -0.49005787
H        0.45798926       3.60709918       0.00484480
H        1.96150336       0.63272775       0.03908682
H        4.30088896       0.44448410       0.16256748
H        4.72890325       3.03690399       0.64244181
H        4.57471693       3.09108254      -1.11269974
H        8.41442521       1.33145772      -0.57416565
