15
Properties=species:S:1:pos:R:3 -1483.6890554955564=T 11.182027=T 12.74776=T -8.7827=T -6.6034=T -9.182=T 0.8971=T -0.0222=T 2.518=T 8.80417=T -2.03196=T 4.178142221=T 10.1256142564=T 0.529806496=T pbc="F F F"
C        0.96618096      -0.02289050      -0.05270779
N        2.41551257      -0.00282154       0.12599423
C        2.95864271       1.36003153       0.02316609
C        4.41784743       1.37552411       0.02210208
C        5.63314251       1.38657508      -0.00576220
C        7.08854162       1.40395147      -0.02274536
H        0.61269595      -1.06283152      -0.04964782
H        0.61307722       0.46492802      -0.98694785
H        0.48522864       0.49310458       0.79324402
H        2.86192871      -0.58146530      -0.58965517
H        2.58439176       1.93766734       0.88789370
H        2.59365573       1.89630791      -0.88309906
H        7.46990068       2.43608339      -0.02622617
H        7.48484400       0.89961772      -0.91672903
H        7.50338951       0.89747771       0.86148033
