18
Properties=species:S:1:pos:R:3 -1782.125537082346=T 13.125266=T 15.13938=T -8.772=T -6.6016=T -9.142=T 0.8765=T -0.0041=T 2.465=T 8.73297=T -2.00839=T 4.1664379426=T 11.8055377662=T 0.6853546=T pbc="F F F"
C        0.97022974      -0.11436468       0.01330217
C        2.50708872      -0.03584076       0.02108614
C        3.00787132       1.33526200       0.00536096
C        3.40043006       2.48604723      -0.02467424
C        3.87146473       3.86713456      -0.02831644
N        2.77213528       4.82933908      -0.19805062
C        3.22581594       6.20594387      -0.01846146
H        0.64047116      -1.16263742       0.01237951
H        0.56010880       0.38007252      -0.87739170
H        0.54989373       0.38014578       0.89946894
H        2.90876833      -0.57698682      -0.85226667
H        2.90005066      -0.55739347       0.91020804
H        4.57925417       4.01374371      -0.86444378
H        4.45636998       4.04972019       0.90265943
H        2.04541425       4.61091465       0.48788926
H        3.91312553       6.47483848      -0.83609064
H        3.75693637       6.39140727       0.94008245
H        2.36390122       6.88445381      -0.07451135
