14
Properties=species:S:1:pos:R:3 -1417.6356019437467=T 9.422631=T 10.23478=T -9.4557=T -7.2165=T -10.788=T 0.6126=T -1.3471=T -0.113=T 10.10528=T 0.77866=T 3.678416648=T 7.9032024022=T 0.1093254=T pbc="F F F"
O        0.95281633       0.24816946       0.32061483
C        2.32051093       0.06608449      -0.01483733
C        3.33048287       0.97894667       0.74981688
N        3.57902960      -0.13592397       1.70456244
C        3.04365494      -1.11013982       0.71434503
C        2.39904994       0.08111578      -1.52809001
O        3.43585076      -0.05062724      -2.15043428
H        0.88363104       0.24104295       1.29200916
H        2.89596017       1.88703158       1.19559313
H        4.18661031       1.24062392       0.10494378
H        4.56198387      -0.27503291       1.94835223
H        3.80053505      -1.57119640       0.05719333
H        2.37842981      -1.88184449       1.13159027
H        1.41343436       0.22537998      -2.03654944
