19
Properties=species:S:1:pos:R:3 -1868.7308989521036=T 12.841508=T 14.43361=T -9.3097=T -7.1136=T -9.183=T 1.0865=T 0.1159=T 1.414=T 8.65147=T -0.80001=T 6.396623719=T 0.411773293=T pbc="F F F"
C        1.06075169       1.68046723      -1.06477106
C        2.36917898       1.08754220      -0.57625478
O        3.30532178       2.14483490      -0.37352344
C        4.57216400       1.65554201       0.07788528
C        5.53394584       2.79435980       0.19385541
C        6.20300043       3.10149452       1.31277834
C        7.20273631       4.20755905       1.44778590
H        0.32057060       0.88394843      -1.22514285
H        1.20647708       2.21554165      -2.01330496
H        0.65591622       2.38750356      -0.32764957
H        2.77185376       0.36427096      -1.31534062
H        2.21561422       0.53352390       0.37265455
H        4.95232269       0.90757567      -0.65098291
H        4.46310496       1.13954068       1.05325773
H        5.68958463       3.38594494      -0.71547609
H        6.01733919       2.49966179       2.21134785
H        7.32032962       4.76463048       0.50817494
H        8.19050523       3.81742083       1.74190018
H        6.90161275       4.91754738       2.23460611
