15
Properties=species:S:1:pos:R:3 -1611.2298764870336=T 12.271868=T 13.47951=T -10.0154=T -7.6352=T -9.785=T 0.9238=T -0.0365=T 2.235=T 9.45509=T -1.89021=T 4.3552314248=T 10.6060848036=T 1.128097465=T pbc="F F F"
C        2.31098348       0.64859900       2.25046347
C        3.00952739       0.18769484       1.37043889
C        3.85805460      -0.32744751       0.30170475
C        4.66272541       0.77200586      -0.42002216
C        5.69068444       1.47376315       0.48961825
C        6.74977195       0.58549942       0.95538944
C        7.62413463      -0.17091365       1.32704818
H        1.69090196       1.03734854       3.03210165
H        3.23062767      -0.85931970      -0.43177761
H        4.55585607      -1.07371218       0.71795846
H        3.96966510       1.52965564      -0.81523408
H        5.18425266       0.31919855      -1.27652145
H        5.16891343       1.90619430       1.36014173
H        6.14287464       2.31750238      -0.05642500
H        8.39850658      -0.82991864       1.66263548
