16
Properties=species:S:1:pos:R:3 -1502.2452225165246=T 10.201679=T 11.11377=T -9.006=T -6.8649=T -10.551=T 1.0044=T 0.0232=T 3.542=T 9.86841=T -3.33357=T 8.725886708=T 12.5242226152=T 0.184505696=T pbc="F F F"
N        0.47667127       0.23184702       0.03043487
C        1.83188352       0.01399979      -0.49902417
C        2.87067077       0.44506213       0.53570559
N        4.22822449       0.25088424       0.02306105
C        5.27310385       0.14687316       1.04528840
C        4.81748318      -1.06503688       0.30278765
H       -0.21391028      -0.16021230      -0.61275036
H        0.28009469       1.23556897       0.07538867
H        2.04811998       0.53655128      -1.45102509
H        1.94978490      -1.06459587      -0.69256768
H        2.68796655      -0.10585714       1.48262766
H        2.74895155       1.52044698       0.75499902
H        4.96968871       0.22572353       2.09506703
H        6.22567931       0.62119241       0.79826502
H        5.43275277      -1.48905010      -0.49391607
H        4.20998474      -1.78666720       0.86062841
