17
Properties=species:S:1:pos:R:3 -1679.0560513301702=T 11.522208=T 12.35029=T -8.7737=T -6.9125=T -9.819=T 0.8423=T -0.0662=T 1.09=T 9.08129=T -0.44045=T 4.8715711218=T 6.4960480924=T 0.159019032=T pbc="F F F"
C        1.17398338      -0.28494811      -0.45915776
C        2.56529042      -0.05345493       0.07903760
C        3.75588193      -0.53968810      -0.69854827
N        3.49937088       0.88511048      -0.56320468
C        3.17660545       1.70456845      -1.66685952
C        2.27165411       2.85906676      -1.32299082
N        3.67579624       1.60455126      -2.84801620
H        0.45945193       0.44939341      -0.05964559
H        0.82047948      -1.28375403      -0.16280521
H        1.15325345      -0.22573284      -1.55674526
H        2.64613119      -0.05592911       1.17188998
H        3.54730585      -1.00202763      -1.67062205
H        4.64063459      -0.91902576      -0.18129329
H        2.71282982       3.45444396      -0.51044736
H        1.29009430       2.50769260      -0.97271579
H        2.13596654       3.48784673      -2.20859643
H        4.28852044       0.77723685      -2.90917933
