10
Properties=species:S:1:pos:R:3 -1108.8042133255422=T 10.658112=T 10.38029=T -9.9508=T -8.0002=T -10.178=T -0.3829=T -2.1795=T -0.694=T 9.67738=T 1.23566=T 3.8861427924=T 6.1407910066=T 0.458370995=T pbc="F F F"
O        2.67114950       3.48318594       1.14200529
C        3.19372104       4.10692991       0.26038040
O        4.42186582       3.87178620      -0.33393608
N        5.09305204       2.73298980       0.21045618
C        6.22554291       2.61382275      -0.40350742
C        7.10087244       1.55655369      -0.06142458
C        7.90695120       0.67615350       0.16726157
H        2.78701104       5.00185216      -0.25190775
H        6.53296486       3.31537501      -1.19081895
H        8.60252916      -0.10801897       0.38835134
