14
Properties=species:S:1:pos:R:3 -1480.6012663528122=T 11.395496=T 12.94746=T -9.5873=T -7.4387=T -9.535=T 0.658=T -0.2541=T 0.326=T 9.91743=T 0.26849=T 4.174050683=T 10.2820101968=T 0.345307521=T pbc="F F F"
C        0.96444494      -0.00922938       0.00001396
C        2.41921117      -0.00527358      -0.00032109
C        3.63457055      -0.00721102      -0.00058869
C        5.09012531      -0.00052250      -0.00183584
N        5.61473551       1.37031852       0.03734865
C        6.95303504       1.61983844       0.06583400
O        7.82217335       0.75364666       0.06614485
H        0.56951445       1.01733854       0.01189646
H        0.56832940      -0.53058121       0.88375264
H        0.56805733      -0.50998122      -0.89543867
H        5.48046118      -0.51123260      -0.89859540
H        5.48348920      -0.55897198       0.86428809
H        4.95341651       2.14151032       0.03344988
H        7.17360607       2.71229101       0.09112115
