9
Properties=species:S:1:pos:R:3 -965.162155344812=T 7.578753=T 8.13623=T -10.1092=T -7.8076=T -10.019=T 1.8141=T -0.0377=T 1.881=T 9.66151=T -1.50698=T 4.3678160038=T 10.5984968604=T 0.432924408=T pbc="F F F"
C        0.95613754       0.01361117      -0.06291646
C        2.16836714      -0.04702482      -0.04608286
C        3.60345025      -0.11713061       0.01704278
C        4.39266703      -0.81307384      -1.02610233
O        4.35640974       0.61946304      -0.98222964
H       -0.11286435       0.07127228      -0.08927560
H        4.03125073      -0.05968113       1.02443595
H        3.86044744      -1.27054813      -1.86564379
H        5.34672448      -1.27106797      -0.74389805
