16
Properties=species:S:1:pos:R:3 -1566.409020509423=T 10.502924=T 11.24617=T -9.5813=T -7.4587=T -9.727=T 1.496=T -0.1378=T 1.219=T 9.17728=T -0.6629=T 6.7136807182=T 0.419182995=T pbc="F F F"
C        3.45470475      -0.88123486       0.65177222
O        2.97446348       0.31784612       1.25056697
C        3.09794240       1.46903634       0.39172106
C        2.26540579       2.57467852       1.03211687
C        4.54141160       1.87213538       0.23321020
C        5.19589837       1.92252668      -0.93177407
H        3.28553121      -1.68465812       1.37990959
H        4.53150418      -0.82794916       0.41392627
H        2.90098662      -1.11496055      -0.27772091
H        2.68272019       1.21842559      -0.60685881
H        2.66160448       2.82103404       2.02767910
H        1.22379234       2.24504245       1.14529515
H        2.28945703       3.48038346       0.41180488
H        5.05574210       2.12903955       1.16677931
H        4.70101514       1.66375980      -1.87202349
H        6.24084031       2.23129475      -0.99169432
