15
Properties=species:S:1:pos:R:3 -1470.0232620098468=T 11.159133=T 11.45196=T -8.609=T -6.6594=T -9.283=T 1.1042=T -0.8752=T 0.115=T 8.60587=T 0.56312=T 3.682508186=T 5.2425992268=T 0.298254085=T pbc="F F F"
C        1.02605257       0.00734089       0.33647059
N        2.38797545      -0.10325576      -0.16594813
C        2.90545326      -1.43206642      -0.45738565
C        4.42684702      -1.42099250      -0.53304918
O        5.06897739      -2.26372218      -1.12651413
N        2.87283902       0.81344306      -1.04846672
C        2.25507404       1.92809693      -1.25412954
H        0.91406521       0.92474417       0.93322514
H        0.81728026      -0.84947244       0.98676668
H        0.28034246       0.02997041      -0.48227381
H        2.50348230      -1.86932295      -1.39015489
H        2.63433855      -2.10692886       0.37186727
H        4.91239876      -0.59563944       0.04232707
H        2.73832164       2.62921771      -1.93498152
H        1.30692206       2.21915738      -0.78640317
