17
Properties=species:S:1:pos:R:3 -1773.2794492438434=T 13.519843=T 15.47104=T -9.3369=T -7.0796=T -9.171=T 1.1139=T -0.0101=T 1.29=T 8.97683=T -0.70724=T 4.1476168678=T 10.1410257162=T 0.801698163=T pbc="F F F"
C        0.94736504      -0.02448103      -0.01957622
C        2.40334879      -0.00831807      -0.00777727
C        3.61963156      -0.01050274       0.00231013
C        5.07781052       0.02041693       0.01950922
C        5.65702490       1.45607725      -0.05624478
C        7.15677965       1.46520187      -0.07821366
C        7.93558208       2.05719716       0.83456382
H        0.53713232       0.99657965      -0.01202919
H        0.54780781      -0.55040317       0.86060210
H        0.56106262      -0.53222467      -0.91617272
H        5.46971803      -0.57413990      -0.82399006
H        5.44987777      -0.46775470       0.93596879
H        5.28440463       2.04443343       0.79595663
H        5.26704175       1.93243240      -0.97158808
H        7.62960450       0.93361660      -0.91341847
H        7.50641247       2.59633003       1.68339351
H        9.02388558       2.02933895       0.76365626
