17
Properties=species:S:1:pos:R:3 -1724.7290979203624=T 13.758091=T 14.14708=T -8.7088=T -6.6723=T -8.426=T 0.5569=T -0.9976=T 0.312=T 7.93695=T 0.24256=T 5.1272178552=T 0.8408129=T pbc="F F F"
C        1.20743507       2.78036392      -0.44042206
O        2.51062996       2.49750612      -0.92910931
C        3.36288746       2.00137278       0.10683030
C        4.68696720       1.63233926      -0.47492685
C        5.86932543       2.08532882      -0.01290554
C        7.16134097       1.69420184      -0.54529890
C        8.34099114       2.14130482      -0.07443500
H        0.61859531       3.15109734      -1.28868707
H        1.22778712       3.55499788       0.34996129
H        0.72081343       1.87483300      -0.02946788
H        2.88995752       1.10701194       0.56882321
H        3.48385681       2.75914526       0.90724608
H        4.66249245       0.93458057      -1.31896313
H        5.87701916       2.79501796       0.82362127
H        7.15070105       0.99131314      -1.38578303
H        8.38780476       2.84142142       0.76315103
H        9.28778517       1.82246392      -0.51008440
