15
Properties=species:S:1:pos:R:3 -1521.436428696454=T 10.567649=T 11.6909=T -9.8862=T -7.624=T -9.869=T 0.8295=T -0.2332=T 2.254=T 9.43993=T -1.84257=T 4.3502843834=T 10.824721716=T 0.365742273=T pbc="F F F"
O        2.66910297      -0.86497928       0.80845276
C        2.33270723      -0.00590046      -0.28336452
C        2.90181144       1.39525693      -0.01341085
C        2.35615880       1.99760264       1.30542267
O        2.77360073       3.34473357       1.49792482
C        4.36341980       1.42326390      -0.00909803
C        5.57431737       1.50703426       0.03593504
H        2.44902795      -1.77577530       0.55483780
H        1.23469478       0.08482865      -0.39260976
H        2.74447007      -0.38435076      -1.23498652
H        2.55216043       2.04527964      -0.83617654
H        2.65322791       1.35086747       2.14740135
H        1.25706213       2.02150296       1.25668966
H        3.74958385       3.33759864       1.51869532
H        6.64405456       1.55126716       0.06182679
