17
Properties=species:S:1:pos:R:3 -1582.0344463838578=T 10.240196=T 11.35439=T -9.2217=T -6.8549=T -10.573=T 1.0226=T 0.0849=T 3.238=T 9.94644=T -2.9825=T 8.804989776=T 12.2394267732=T 0.150375372=T pbc="F F F"
C        1.07579928       1.60968233       1.38787927
O        2.47822400       1.79104348       1.27808463
C        2.97364563       1.33124524       0.02029418
C        4.47832865       1.53670391      -0.04209109
C        4.90307204       3.00518456      -0.02524307
N        6.36381449       3.11397841      -0.19052458
H        0.77495937       1.98215769       2.37534829
H        0.79626343       0.54140091       1.30437705
H        0.52896486       2.17362183       0.60747016
H        2.47212673       1.88296553      -0.80340471
H        2.72819351       0.25723943      -0.10774113
H        4.86147941       1.06690849      -0.96205742
H        4.94188974       1.00369176       0.80613789
H        4.51374183       3.48332214       0.89306975
H        4.43286914       3.52148425      -0.87964651
H        6.82918395       2.71862018       0.63194563
H        6.63437394       4.10013987      -0.21338834
