13
Properties=species:S:1:pos:R:3 -1340.0466287173099=T 10.143398=T 10.96324=T -10.1811=T -8.127=T -10.999=T 1.0002=T -0.8732=T -0.131=T 10.5359=T 0.67634=T 5.3450116628=T 11.3843201284=T 0.258690688=T pbc="F F F"
C        0.98158197      -0.02777794      -0.07614687
C        2.51834105      -0.00524355      -0.03265667
C        3.19483066      -0.64029804      -1.23071579
N        2.48071234      -1.19052939      -2.13817057
O        3.28556137      -1.74816197      -3.15077177
C        3.02677277       1.36402070       0.13820272
N        3.42722613       2.45043193       0.27886804
H        0.57524871       0.42475579       0.83613613
H        0.62991019      -1.06296423      -0.15543123
H        0.61077632       0.52778760      -0.94566318
H        2.85901726      -0.56267009       0.86139704
H        4.29085965      -0.61921533      -1.28498771
H        2.61985157      -2.11244548      -3.76234013
