17
Properties=species:S:1:pos:R:3 -1735.1609168481696=T 13.601182=T 13.90217=T -8.4663=T -6.4256=T -8.273=T 0.728=T -0.7759=T 0.394=T 7.78341=T 0.17165=T 5.065757995=T 0.832871053=T pbc="F F F"
O        1.14367654       1.79459617      -0.29305587
C        1.85446967       2.07702373       0.92136693
C        3.17678376       2.75278036       0.55273359
C        4.10188128       1.86866752      -0.22546362
C        5.36276869       1.55774368       0.14048376
C        6.24294078       0.69658651      -0.62724051
C        7.50317550       0.37834101      -0.27386320
H        0.34685705       1.28791432      -0.06540012
H        2.05548337       1.14767202       1.48542161
H        1.26805700       2.75528080       1.56907574
H        3.66521722       3.09857720       1.47761991
H        2.92962370       3.65075401      -0.04182551
H        3.69948292       1.45088961      -1.15466875
H        5.76896400       1.97343438       1.07164854
H        5.83025369       0.28788289      -1.55674023
H        7.95120021       0.76623094       0.64428567
H        8.12029461      -0.27516516      -0.89036792
