19
Properties=species:S:1:pos:R:3 -1878.016799343005=T 11.580351=T 13.00791=T -9.5978=T -7.4196=T -11.261=T 0.9193=T -0.0205=T 2.765=T 10.9656=T -2.52868=T 9.1182280064=T 10.8922692888=T 0.099805803=T pbc="F F F"
C        0.91749432      -0.01971536       0.02686534
C        2.43665894       0.01368492       0.04135255
C        3.18829717       1.06005931       0.91664639
C        4.26282524      -0.01496882       1.25853633
C        5.51169856       0.05289237       0.38416543
C        3.21337902      -1.08556471       0.81447719
O        3.61744501      -2.27912070       0.16078463
H        0.54653444      -0.90853634      -0.50542606
H        0.49632677       0.86804551      -0.46913642
H        0.51772247      -0.05042826       1.05280786
H        2.82214994       0.05981468      -0.99257123
H        2.59529271       1.34754102       1.79776240
H        3.54276348       1.97286135       0.41691803
H        4.55897299      -0.07533784       2.31674630
H        5.26791253       0.16645444      -0.68478114
H        6.13031195      -0.84993677       0.49982387
H        6.13078723       0.91810633       0.66374712
H        2.62558897      -1.42061762       1.68434180
H        4.16302823      -2.02485352      -0.60512039
