12
Properties=species:S:1:pos:R:3 -1275.8656247467134=T 9.023877=T 9.38697=T -9.6384=T -7.6074=T -10.938=T 0.5916=T -1.296=T -0.208=T 10.05904=T 0.83226=T 3.7645125264=T 6.6227369872=T 0.16257159=T pbc="F F F"
O        0.85509827       0.02299510      -0.33739995
C        2.04185470      -0.01682015      -0.07526526
C        2.91930405       1.21837966       0.01854740
O        4.19343038       1.00079500       0.64075340
N        4.95667862      -0.05060483       0.03543014
C        4.27133823      -1.11262805      -0.20171590
C        2.82607483      -1.30217577       0.14789279
H        2.42377060       1.99977488       0.60964919
H        3.06379822       1.59798904      -1.01148439
H        4.84221912      -1.92243995      -0.66502669
H        2.35339672      -2.14037290      -0.37779828
H        2.76046626      -1.51022202       1.23304756
