13
Properties=species:S:1:pos:R:3 -1351.261324247603=T 11.114837=T 10.54697=T -7.7478=T -5.8061=T -8.532=T 0.6555=T -0.9302=T -0.199=T 8.09918=T 0.71911=T 4.5438141308=T 0.307115157=T pbc="F F F"
N        1.04209973      -0.07576610      -0.39126600
N        2.36360185      -0.01743330       0.03498160
C        2.92992134       1.14353186       0.05373248
C        4.38881858       1.30765820       0.44773594
O        4.65466274       2.74347578       0.35823210
C        3.49691607       3.32994043      -0.05011079
C        2.45498565       2.48755761      -0.24563525
H        0.62381834      -0.92963284      -0.02422301
H        0.47402701       0.73491456      -0.11645824
H        5.08138273       0.79521374      -0.23605911
H        4.59875656       0.99307752       1.48009396
H        3.55886190       4.40956186      -0.17670507
H        1.47255751       2.78318067      -0.59965861
