14
Properties=species:S:1:pos:R:3 -1455.58656892629=T 10.378924=T 10.8953=T -9.1437=T -7.2183=T -10.07=T 0.1299=T -1.5742=T -0.62=T 9.22197=T 1.21519=T 3.4618007074=T 5.3930438392=T 0.510389181=T pbc="F F F"
C        0.82778710       0.09371496       0.15919613
C        2.31072084       0.01463290       0.00907986
C        3.12166472       1.06808997      -0.20533494
C        4.59334539       1.00697980      -0.35496411
C        5.29979398      -0.33655463      -0.27091026
O        5.22956502       2.04365074      -0.54631622
H        0.32515292      -0.52306634      -0.60306788
H        0.46115919       1.12466507       0.07181656
H        0.51252730      -0.30900937       1.13520204
H        2.74954508      -0.98660662       0.08327200
H        2.70923151       2.07911707      -0.28305945
H        4.93043837      -1.02605566      -1.04408806
H        5.12662348      -0.81183889       0.70578294
H        6.37408511      -0.17669901      -0.41049861
