17
Properties=species:S:1:pos:R:3 -1726.3023590634784=T 12.154309=T 13.90819=T -9.5808=T -7.3192=T -9.279=T 0.7552=T -0.1538=T 2.189=T 8.83437=T -1.80124=T 4.131151527=T 9.9814433356=T 0.298903903=T pbc="F F F"
C        0.95750582       0.00071192      -0.01281258
C        2.41269791      -0.00991036      -0.01109495
C        3.62938967      -0.01806641       0.00781887
C        5.10125850      -0.00625210      -0.00143450
C        5.65926160      -0.64977657       1.27492131
C        5.62815258      -0.72542881      -1.25747847
O        5.58855284       1.36205552       0.02094911
H        0.57045596       1.03051635       0.00878368
H        0.55686094      -0.52379860       0.86751621
H        0.55368885      -0.49066472      -0.91055885
H        5.27989148      -0.12143265       2.15821535
H        6.75602741      -0.58331257       1.26403001
H        5.36313578      -1.70474890       1.33437199
H        5.24590841      -0.24133192      -2.16713445
H        5.30848611      -1.77677489      -1.27067654
H        6.72592251      -0.68080791      -1.26614827
H        5.09942361       1.84856263      -0.66663790
