18
Properties=species:S:1:pos:R:3 -1762.6038556612857=T 11.006636=T 12.07631=T -8.7964=T -6.718=T -10.219=T 0.8977=T -0.0696=T 2.796=T 9.48982=T -2.50602=T 8.0704471176=T 13.015182378=T 0.153083912=T pbc="F F F"
C        1.00479522       0.03976168       0.02249103
C        2.52409771       0.00526087       0.07344889
N        3.09744316       1.11384196       0.85293650
C        4.46018257       0.65957073       1.18538630
C        4.36319139      -0.85803572       1.45730019
C        3.12730487      -1.32035666       0.63833624
O        3.39649071      -2.29523706      -0.37695221
H        0.62414153      -0.79500865      -0.58177281
H        0.64469556       0.98031809      -0.41660438
H        0.57772703      -0.05424847       1.03440211
H        2.91420404       0.10446002      -0.96113524
H        2.55919625       1.21391338       1.72072650
H        5.10929396       0.85729257       0.31449002
H        4.86549221       1.23593915       2.02791979
H        5.25954309      -1.42361805       1.16279245
H        4.20121964      -1.04524415       2.52952632
H        2.39469607      -1.81946389       1.29150346
H        3.99631498      -1.88482580      -1.02682519
