15
Properties=species:S:1:pos:R:3 -1631.1594318261848=T 13.968075=T 13.89013=T -8.4386=T -6.4669=T -8.127=T 0.2157=T -1.2373=T 0.057=T 7.62177=T 0.58926=T 4.0627856466=T 4.9837784518=T 0.420968204=T pbc="F F F"
C        1.03592205      -0.32124333       0.40747671
C        2.50230486      -0.05431706       0.33249583
C        3.12487666       1.11294866      -0.00303752
C        2.41191284       2.34714347      -0.35884531
C        2.99889410       3.51124253      -0.68678280
C        4.55525990       1.14833194      -0.01111418
C        5.77014737       1.20995470      -0.02819861
H        0.76687692      -1.16649852      -0.24680129
H        0.41341496       0.53551056       0.12581663
H        0.75323316      -0.62444233       1.42923389
H        3.15121493      -0.89920426       0.57911968
H        1.32143359       2.29229385      -0.34809338
H        4.08531365       3.61293368      -0.70939769
H        2.40066837       4.38682648      -0.93831783
H        6.84011664       1.24524963      -0.03773415
