18
Properties=species:S:1:pos:R:3 -1808.0112428717334=T 12.134674=T 12.9965=T -8.698=T -6.6101=T -9.469=T 0.9184=T -0.1205=T 1.329=T 8.95678=T -0.73446=T 6.62953142=T 0.441883548=T pbc="F F F"
C        0.80852407       0.07234684       0.19260533
C        2.14170094       0.08683165       0.31787388
C        3.05635419       1.26816142       0.17614040
C        2.41375108       2.65863958       0.00171358
C        3.43565439       3.64833542       0.64390883
N        4.54796158       2.85036295       1.21673425
C        3.99674541       1.50157013       1.39054626
H        0.24229113      -0.85099291       0.32371793
H        0.23606720       0.96980018      -0.05055806
H        2.64898132      -0.85945440       0.54503318
H        3.71776299       1.07021282      -0.69043759
H        1.45684216       2.70239018       0.54408928
H        2.20469044       2.88940252      -1.05226291
H        3.83347146       4.37875518      -0.07473085
H        2.95020564       4.22094189       1.45098439
H        5.29632998       2.79716129       0.52039557
H        4.80101882       0.75713732       1.47434631
H        3.40537720       1.46601795       2.32316021
