10
Properties=species:S:1:pos:R:3 -1125.6393478032871=T 8.297708=T 9.28529=T -12.3445=T -9.8643=T -12.079=T 0.6424=T -0.7836=T 0.487=T 11.76342=T -0.32342=T 5.3269221054=T 11.5700139606=T 0.431899555=T pbc="F F F"
C        0.95472440      -0.02740150       0.01354009
C        2.50243292      -0.00865508      -0.00897304
C        3.03408426      -0.77000535      -1.14990930
N        3.42427432      -1.40542758      -2.04500267
C        3.02379439       1.36681825      -0.01224636
N        3.40348889       2.46766219       0.02140396
H        0.59601620       0.51880937       0.89338278
H        0.60279803      -1.06421400       0.06159281
H        0.55387895       0.44571207      -0.88992555
H        2.88484763      -0.49395836       0.90657728
