13
Properties=species:S:1:pos:R:3 -1441.0777945521386=T 13.049952=T 13.45534=T -8.5154=T -6.6845=T -8.298=T 0.9196=T -0.5528=T 0.347=T 7.64528=T 0.19372=T 4.5018200726=T 11.0421435656=T 0.621521301=T pbc="F F F"
C        2.46068986       0.35583388       1.00936926
C        2.06359770      -0.02886565      -0.47327904
C        2.38976822       1.41620407      -0.84711890
C        2.49527743       2.43964245      -1.75079149
S        3.05689996       3.86636968      -0.90557261
C        3.13982703       3.06122390       0.64690131
C        2.74629182       1.76029096       0.47997094
H        3.33265901      -0.18514771       1.40393842
H        1.63796093       0.28516828       1.73517633
H        1.01233487      -0.32325389      -0.60309229
H        2.70767450      -0.79080387      -0.93511248
H        2.30149551       2.49999277      -2.81835608
H        3.46699316       3.62390513       1.51710660
