15
Properties=species:S:1:pos:R:3 -1606.0791711373465=T 11.454657=T 11.87319=T -8.771=T -6.6549=T -9.098=T 0.8982=T -0.0716=T 1.198=T 8.70985=T -0.56375=T 6.1793506526=T 0.420910533=T pbc="F F F"
C        0.97250298       0.13140250      -0.26293870
C        2.24496078      -0.02487627       0.12814572
C        2.95065769      -1.35484913       0.24214636
C        4.42076540      -1.24691096      -0.05008440
C        5.02762913      -0.05872181      -0.13557474
C        4.29399743       1.22609986       0.07671553
O        2.95073693       1.07793739       0.57454976
H        0.51874705       1.12104882      -0.29538813
H        0.36489249      -0.73407226      -0.52176699
H        2.47410479      -2.07864306      -0.43648823
H        2.80825511      -1.75451346       1.26419650
H        4.98467311      -2.17187193      -0.19034622
H        6.09275649       0.02137838      -0.36648003
H        4.81180511       1.84971078       0.82295377
H        4.25881552       1.80857116      -0.86566021
