16
Properties=species:S:1:pos:R:3 -1507.7336498550792=T 11.343298=T 11.83853=T -8.1118=T -6.1169=T -8.909=T 1.1635=T 0.0365=T 0.852=T 8.3792=T -0.2628=T 4.8873173438=T 5.3805956448=T 0.271117406=T pbc="F F F"
C        1.14291162      -0.31212781      -0.85959811
C        2.24735917      -0.23970688       0.18731551
N        3.11767279       0.90971909      -0.06685028
N        4.23712960       0.95179834       0.72247033
C        4.76564052       2.09591979       0.98359972
C        6.04118416       2.19797637       1.75561683
H        0.50167377      -1.18495996      -0.67643500
H        1.56467530      -0.39324975      -1.87118070
H        0.49847682       0.58054528      -0.82813583
H        2.88621168      -1.13365837       0.14366181
H        1.80812783      -0.20480538       1.20403866
H        2.59891848       1.79925431      -0.10724683
H        4.29625947       3.03398221       0.62849410
H        6.38129767       1.19854600       2.05449148
H        5.91293906       2.81585836       2.65901730
H        6.83390205       2.67487841       1.15572102
