16
Properties=species:S:1:pos:R:3 -1646.068723612376=T 13.241942=T 13.63912=T -8.6051=T -6.5458=T -8.299=T 0.7132=T -0.7695=T 0.648=T 7.84381=T -0.02428=T 4.0488496202=T 11.3158426606=T 0.550261683=T pbc="F F F"
C        0.87127047       0.15653312      -0.11978458
C        2.36555631       0.03715522      -0.10985680
C        2.94488513      -1.35092470      -0.25209002
N        2.29159057      -2.12226156      -1.32738245
C        3.15485029       1.12656600       0.05766148
C        4.57169112       1.11852908       0.07859200
C        5.78955865       1.16177216       0.10853407
H        0.54418183       1.19293135       0.03263804
H        0.41853267      -0.46756196       0.66992447
H        0.46685237      -0.19822828      -1.08105584
H        2.88159175      -1.84256121       0.74374930
H        4.01445191      -1.26589737      -0.48919838
H        1.38992340      -2.48572420      -1.00870133
H        2.86167659      -2.94216455      -1.54314392
H        2.68109791       2.10387078       0.19823989
H        6.85942901       1.19235612       0.12975407
