19
Properties=species:S:1:pos:R:3 -1811.8662321402371=T 11.878234=T 12.99869=T -9.1196=T -6.8625=T -10.427=T 0.9331=T -0.0061=T 3.012=T 9.87368=T -2.64424=T 8.4810887496=T 12.4098703274=T 0.134136155=T pbc="F F F"
N        1.30806196       0.26062641      -1.35698865
C        2.09106297       0.13324844      -0.11871259
C        3.20796641       1.17017236      -0.00436795
C        4.06511763       1.01163066       1.23922068
N        3.25798241       1.17040184       2.46201375
C        3.89899953       1.66970405      -1.25165270
C        2.95520356       2.57873319      -0.49362059
H        0.40167177      -0.19339432      -1.23928235
H        1.77366178      -0.22836315      -2.12441357
H        2.54697415      -0.87039634       0.01209640
H        1.41279883       0.27538588       0.73576151
H        4.91838151       1.71694674       1.16720157
H        4.49519442      -0.00562549       1.25681761
H        2.91549476       2.13389955       2.51678984
H        3.84288689       1.02511015       3.28780462
H        3.55319407       1.30282366      -2.21871495
H        4.97065218       1.87078169      -1.19736323
H        3.38483810       3.40805365       0.07216358
H        1.98676707       2.76809104      -0.95788296
