14
Properties=species:S:1:pos:R:3 -1482.698445096127=T 10.757341=T 11.94059=T -10.1166=T -7.8691=T -9.662=T 0.9342=T -0.5634=T 0.687=T 9.1385=T -0.14618=T 5.369647681=T 6.2755761872=T 0.403219001=T pbc="F F F"
C        0.77543795      -0.01157766       0.02276092
C        2.26903249      -0.08367661       0.07840653
C        3.09023318       0.95802971      -0.09189716
C        4.60341404       0.86104494      -0.01889105
O        5.11913877      -0.46503864       0.02330836
C        5.20965222       1.63298636      -1.12907084
N        5.67822924       2.22297063      -2.01958381
H        0.33227909      -0.35010158       0.97242896
H        0.38052334      -0.67833520      -0.75985713
H        0.42050248       1.00727542      -0.18146538
H        2.70945798      -1.06467227       0.28619973
H        2.69521364       1.96030054      -0.28535451
H        4.95362700       1.33013603       0.91862305
H        4.88394859      -0.89739168      -0.81986768
