18
Properties=species:S:1:pos:R:3 -1736.646396789319=T 11.382507=T 12.60568=T -8.4488=T -6.3993=T -9.872=T 0.9966=T 0.001=T 3.278=T 9.08809=T -3.13365=T 7.9524992358=T 10.968607469=T 0.091606219=T pbc="F F F"
O        0.87171441       2.27120125      -0.51081691
C        2.29177859       2.33002715      -0.70553839
C        2.92889541       1.33254001       0.25426175
N        4.37766693       1.35984076       0.15091533
C        5.10874166       2.48626205       0.79024534
C        6.20854268       1.48656233       1.21642586
C        5.13921642       0.39384833       0.98136342
H        0.46015536       2.89890124      -1.12722951
H        2.67605923       3.34666971      -0.49635079
H        2.57189242       2.06635957      -1.74111958
H        2.58000577       0.31946749      -0.00322527
H        2.57656965       1.55140068       1.28855903
H        4.56630475       2.89860033       1.66731654
H        5.38454079       3.31101582       0.11543588
H        7.02935340       1.43266240       0.49042611
H        6.61329559       1.58547021       2.22996277
H        5.43389281      -0.53171084       0.46293633
H        4.61227412       0.13242150       1.92237209
