17
Properties=species:S:1:pos:R:3 -1691.334127609577=T 12.750612=T 13.42671=T -8.5491=T -6.7121=T -9.143=T 0.8642=T -0.724=T 0.124=T 8.45941=T 0.37032=T 4.7387077242=T 5.4526935038=T 0.551277913=T pbc="F F F"
C        0.92350686       0.81241296      -0.62865009
N        2.25616061       0.27779318      -0.41978086
C        3.27235382       1.07927800       0.08597341
N        3.21821612       2.36274135       0.27124946
C        4.54867283       0.40489691       0.40426003
C        4.91996742      -0.83222188       0.03370073
C        6.23110372      -1.46527165       0.37734656
H        0.26846819       0.00437462      -0.97584008
H        0.93756448       1.58788972      -1.40957905
H        0.48527290       1.25030445       0.28724054
H        2.30366616      -0.70087958      -0.15147023
H        2.29102861       2.73564453       0.02844915
H        5.23239305       1.03609088       0.97751697
H        4.24832016      -1.43503057      -0.58890243
H        6.85919555      -0.79497997       0.97914650
H        6.78867505      -1.73921984      -0.53259967
H        6.08300446      -2.39956310       0.94307906
