17
Properties=species:S:1:pos:R:3 -1643.977797220865=T 11.543755=T 12.50662=T -9.1824=T -6.923=T -9.058=T 1.0298=T -0.0948=T 1.449=T 8.53613=T -0.81818=T 6.3304399922=T 0.40080718=T pbc="F F F"
C        1.67641923      -0.48661563      -1.14295476
C        2.67417337      -0.17646052      -0.01671079
C        3.04674137       1.27595442       0.05359399
C        4.28521890       1.77108650      -0.07726427
C        4.63054049       3.23016825      -0.00971353
N        5.63978322       3.46995770       1.03833822
H        1.40010577      -1.55087077      -1.14326203
H        2.10524474      -0.24376958      -2.12590722
H        0.75210472       0.09957593      -1.02789500
H        3.58454269      -0.78431066      -0.14163832
H        2.22390084      -0.47905894       0.94575530
H        2.21686300       1.97864458       0.21221771
H        5.13267274       1.09047360      -0.22367162
H        3.69713224       3.81824928       0.10510811
H        5.08497782       3.53839155      -0.96800876
H        5.22528344       3.28622307       1.95589347
H        5.91949540       4.45349121       1.03503949
