18
Properties=species:S:1:pos:R:3 -1812.3490176111554=T 11.471137=T 12.55895=T -8.7175=T -6.6475=T -9.851=T 0.9532=T 0.0653=T 3.156=T 9.19589=T -2.96563=T 7.9575950604=T 11.2253328806=T 0.180849259=T pbc="F F F"
C        1.11523161       0.29248222       0.56772786
C        2.35332523      -0.21125143      -0.16457382
N        2.09519322      -1.50222662      -0.84477910
C        3.04285321      -1.58256425      -1.97494302
C        3.35857261      -0.14659248      -2.39160304
C        2.17879384       0.78163175      -2.55725743
C        2.91605395       0.72774799      -1.23869004
H        1.33975246       1.21267451       1.12465991
H        0.75193515      -0.45986952       1.28212034
H        0.30426122       0.52064819      -0.14217112
H        3.15827843      -0.37731190       0.57713786
H        1.14098859      -1.48346505      -1.21374778
H        3.97400429      -2.07400703      -1.64195283
H        2.61385008      -2.19925758      -2.77982748
H        4.27979661       0.05927919      -2.93917584
H        2.32123980       1.66995013      -3.17268794
H        1.17618990       0.34829402      -2.62127501
H        3.50426979       1.59238786      -0.92581153
