16
Properties=species:S:1:pos:R:3 -1515.0195185877703=T 10.634241=T 11.14678=T -9.0543=T -6.8621=T -9.615=T 0.9659=T -0.2316=T 1.316=T 9.09502=T -0.74635=T 6.700885363=T 0.394338624=T pbc="F F F"
N        1.43730939      -0.50380501      -0.71715452
C        2.77140882      -0.30250580      -0.12438525
C        3.09851497       1.20140664      -0.09693263
N        2.08548390       2.02069246       0.59286636
C        4.45571373       1.53827352       0.46439929
C        5.37457138       0.68301626       0.92853696
H        1.11306061      -1.45638727      -0.54274600
H        1.48993332      -0.40278068      -1.73444310
H        3.57797723      -0.84895042      -0.65161537
H        2.74084227      -0.67834438       0.91166502
H        3.10018596       1.54865030      -1.15197776
H        2.14094038       1.82514599       1.59832896
H        1.16824332       1.67261665       0.29073187
H        4.66130926       2.61381936       0.49447121
H        5.22326045      -0.39829204       0.93456232
H        6.32678501       1.04412442       1.32000267
