23
Properties=species:S:1:pos:R:3 -2210.210354764843=T 13.273958=T 14.6211=T -10.7032=T -8.4627=T -12.136=T 0.8749=T -0.0241=T 2.757=T 11.82649=T -2.39692=T 10.1362522552=T 10.4446550316=T 0.151224852=T pbc="F F F"
C        0.96639710      -0.09430204      -0.01604041
C        2.49938521       0.01571419      -0.05039310
C        3.04171652      -0.83717472      -1.20880091
C        3.03080371       1.49174245      -0.04497237
C        2.58818170       2.27257586      -1.29675280
C        2.51089148       2.22646690       1.20720969
C        4.57160431       1.48918483       0.01850776
H        0.52598841       0.40809514       0.85573116
H        0.66665355      -1.15199884       0.02984790
H        0.50848261       0.33190715      -0.92228663
H        2.87873241      -0.43226413       0.88862796
H        2.70826173      -0.45391461      -2.18580702
H        2.66854358      -1.86867346      -1.12249443
H        4.13888177      -0.88656948      -1.21958822
H        2.96601628       1.81261244      -2.22175893
H        2.97921839       3.30106991      -1.25835336
H        1.49285665       2.34099901      -1.37121953
H        2.75825452       1.67202732       2.12665469
H        1.42162607       2.37154085       1.18024167
H        2.97265927       3.22298904       1.28340992
H        4.93494403       0.89270827       0.87066758
H        4.94933072       2.51568145       0.14384530
H        5.02342998       1.08360246      -0.89779593
