14
Properties=species:S:1:pos:R:3 -1433.0050680330507=T 10.718702=T 11.04266=T -8.6649=T -6.5962=T -9.034=T 1.5553=T -0.045=T 1.079=T 8.51176=T -0.6537=T 5.9715253194=T 0.380994041=T pbc="F F F"
C        0.63606424      -0.79179526      -0.04839998
C        2.12449568      -0.92767214       0.01692826
C        2.79650821      -1.98467905       0.50020301
O        2.73071568       0.22144188      -0.47200819
C        4.04792604       0.14614642      -0.86746023
C        4.85626909       1.20731497      -0.80875465
H        0.31148358       0.10133423       0.50619521
H        0.14736116      -1.67188317       0.38369804
H        0.30221250      -0.66810690      -1.08935832
H        2.24398806      -2.85158980       0.85536639
H        3.88167938      -2.00310505       0.57984902
H        4.34514383      -0.82367946      -1.27862920
H        4.52519109       2.15255060      -0.37973505
H        5.86439148       1.13587273      -1.21140431
