13
Properties=species:S:1:pos:R:3 -1478.3540941606125=T 10.759109=T 10.96207=T -8.7902=T -6.7271=T -8.682=T 0.4231=T -1.2169=T -0.107=T 8.18316=T 0.76246=T 3.6807847806=T 6.9315861132=T 0.441417933=T pbc="F F F"
O        1.67779028      -0.66730193      -0.78584862
C        2.02746404       0.07028732       0.11108490
C        3.12091797       1.13103014       0.01040498
C        2.68163409       2.47484105       0.54629548
C        2.95959022       3.41707643      -0.38732595
C        3.56597118       2.78107402      -1.55981496
C        3.65774755       1.44467030      -1.35409304
H        1.56336394       0.00644220       1.12882949
H        3.93702988       0.74203796       0.65832360
H        2.23032398       2.62513706       1.52487550
H        2.76826142       4.48541889      -0.29091841
H        3.87651439       3.31288182      -2.45866347
H        4.02992108       0.69246474      -2.04469951
