6
Properties=species:S:1:pos:R:3 -570.0248559034032=T 4.173282=T 3.92308=T -10.4383=T -7.8768=T -10.16=T 1.9456=T -0.062=T 1.231=T 9.75211=T -0.82042=T 7.1372664886=T 22.9406708318=T 0.709059588=T pbc="F F F"
C        0.98946692       0.00007550       0.00000000
C        2.32461012      -0.00013585       0.00000000
H        0.41663940       0.92974933       0.00000000
H        0.41634287      -0.92941467       0.00000000
H        2.89773268       0.92935495       0.00000000
H        2.89743801      -0.92980927       0.00000000
