16
Properties=species:S:1:pos:R:3 -1663.9489515336263=T 11.245966=T 11.93369=T -8.5074=T -6.4616=T -8.792=T 1.4039=T -0.106=T 1.327=T 8.3659=T -0.69115=T 5.8315327268=T 0.24115925=T pbc="F F F"
C        1.19759259      -0.28988051      -0.04919364
C        2.63544830       0.22965312      -0.01758267
C        2.86314612       1.49645531       0.78338908
C        3.88818054       1.34498342       1.63506399
C        4.40895689      -0.04934283       1.56309514
C        3.41820299      -1.09598925       1.96563692
N        3.60152344      -0.77067639       0.53766265
H        1.14776787      -1.23093730      -0.61376156
H        0.53911573       0.43989777      -0.54098824
H        0.80796484      -0.46928358       0.96283935
H        2.94791425       0.40262719      -1.06547210
H        2.25320742       2.39409189       0.67031407
H        4.28413813       2.10332209       2.31089355
H        5.48326647      -0.25029751       1.59664113
H        3.75685198      -2.10074875       2.23069611
H        2.52992243      -0.73974468       2.49500622
