21
Properties=species:S:1:pos:R:3 -1957.1123532921456=T 12.79756=T 14.60997=T -9.242=T -6.902=T -10.615=T 0.9489=T -0.0155=T 3.076=T 10.35738=T -2.8378=T 8.7593877252=T 9.7895502034=T 0.170866322=T pbc="F F F"
N        0.77174206       1.18728842       1.47710956
C        2.06308162       0.88754758       0.83730170
C        2.92008994       2.14844564       0.73113849
C        4.25811830       1.91632712       0.02382522
C        5.12367487       3.17652377      -0.06071440
C        6.45078045       2.95360693      -0.78517898
N        7.25761361       4.18479600      -0.78616159
H        0.19835308       0.34163427       1.51923271
H        0.92865014       1.46973328       2.44887372
H        1.85109359       0.50852146      -0.17677212
H        2.64832927       0.09748965       1.35360163
H        3.10908055       2.54163470       1.74690270
H        2.33907432       2.92286789       0.20335846
H        4.06885539       1.53118268      -0.99431972
H        4.82003357       1.12419538       0.55064713
H        5.33746575       3.56074510       0.95049731
H        4.55870105       3.97162063      -0.58101169
H        6.24357497       2.55078402      -1.79910761
H        7.02759829       2.17908113      -0.25196959
H        6.78419148       4.90370597      -1.34093064
H        8.15255767       4.01516838      -1.25092228
