11
Properties=species:S:1:pos:R:3 -1234.792282417936=T 11.675669=T 12.00735=T -8.2496=T -6.4961=T -8.558=T 0.9492=T -0.6104=T 0.074=T 7.95392=T 0.41851=T 4.4976665416=T 10.8884381214=T 0.371516204=T pbc="F F F"
C        2.11631600       0.01789538       0.56250883
O        1.23315075       0.40225401      -0.59202286
C        2.06841013       1.51369336      -0.77739384
C        2.29984475       2.62985790      -1.52835815
S        3.73727060       3.38870554      -0.84785160
C        3.95349501       2.17541515       0.40356284
C        2.95846942       1.25120938       0.27792894
H        2.58122889      -0.95805660       0.37019113
H        1.53540971       0.01547002       1.49425678
H        1.79732367       3.07401452      -2.38035107
H        4.78608107       2.27274134       1.09418900
