17
Properties=species:S:1:pos:R:3 -1741.5469603281804=T 10.757859=T 11.8716=T -9.7847=T -7.5419=T -11.4=T 0.9275=T -0.0174=T 2.917=T 11.0771=T -2.65811=T 9.2668252274=T 12.9577892586=T 0.142220184=T pbc="F F F"
O        1.08261155      -0.07764186       0.05893946
C        2.50365907       0.00715671       0.00230991
C        3.09370001       1.05315505      -1.00132176
C        2.71457418       0.03583135      -2.11888212
C        3.08850052      -1.00576756      -1.02020904
C        4.59827251      -0.76582443      -0.84647589
C        4.60177879       0.80364063      -0.82574882
H        0.75873265       0.71186026       0.52553641
H        2.93976109      -0.00437819       1.02001967
H        2.74522655       2.09508679      -1.01335582
H        3.31209552       0.04374398      -3.04275890
H        1.64271755       0.03717415      -2.34286857
H        2.72906614      -2.04187047      -1.04739746
H        4.98697167      -1.19910248       0.08693288
H        5.17943058      -1.17995091      -1.68244946
H        5.19242381       1.23855172      -1.64461085
H        4.98599781       1.20890528       0.12249037
