17
Properties=species:S:1:pos:R:3 -1679.0038328732333=T 11.132229=T 12.03066=T -8.9527=T -6.874=T -9.319=T 0.8515=T -0.0725=T 1.123=T 8.73593=T -0.55191=T 6.2247915216=T 0.363468804=T pbc="F F F"
C        2.42959026      -0.49384648       0.09155306
O        3.71717500       0.13016928       0.12297099
C        3.74438382       1.51158630       0.10901972
C        2.65601569       2.30073965       0.07422922
C        5.16390080       2.00584725       0.16018488
C        5.91807039       1.58337304       1.43327425
O        6.24906500       0.19603901       1.46786964
H        2.61581007      -1.57335429       0.10201462
H        1.88771873      -0.21885629      -0.82705670
H        1.83076176      -0.20872030       0.97117888
H        1.63813898       1.91936030       0.04853043
H        2.78785893       3.38031139       0.06669500
H        5.15065106       3.10322811       0.09602051
H        5.71918374       1.62421464      -0.71301966
H        5.32371848       1.87398673       2.32165752
H        6.87498764       2.12462555       1.48107438
H        5.43833967      -0.28345389       1.21133327
