16
Properties=species:S:1:pos:R:3 -1637.2948811693686=T 10.915679=T 12.08439=T -9.2386=T -7.2975=T -10.479=T 0.7554=T -0.1797=T 0.635=T 9.42547=T 0.04222=T 4.4034495802=T 11.6720048442=T 0.283247476=T pbc="F F F"
C        1.40985430      -0.65088557      -0.24382383
N        2.81417666      -0.34721842      -0.03360408
C        3.33237532       0.91317319      -0.20796005
O        2.64662029       1.87475107      -0.56767592
C        4.80110582       1.02834642       0.07234035
C        5.58945850       2.02504681      -0.76078698
C        5.29069672       2.33638874       0.67208832
H        1.28147355      -1.44117097      -0.99820412
H        0.93155076       0.26852255      -0.60145989
H        0.92160968      -0.96631034       0.69085603
H        3.43738306      -1.08549270       0.27640548
H        5.32236407       0.11836402       0.37852312
H        5.01371218       2.56195387      -1.51492149
H        6.60528035       1.74513889      -1.03926584
H        6.09548475       2.27579889       1.40450786
H        4.51712400       3.07941354       0.86690104
