15
Properties=species:S:1:pos:R:3 -1545.8461792422424=T 9.716065=T 10.78682=T -9.7111=T -7.5208=T -11.29=T 0.9336=T 0.0439=T 2.681=T 10.80403=T -2.34489=T 8.7957280218=T 10.4797182724=T 0.160374971=T pbc="F F F"
C        0.93666642       0.29333183       0.38836108
C        2.22717392      -0.21089839      -0.23458357
O        1.95667582      -1.46196706      -0.90690290
C        2.82302880      -1.59096513      -2.04155665
C        3.20808147      -0.18208178      -2.42968225
O        2.07898569       0.71516825      -2.52943662
C        2.83994853       0.67944589      -1.30064542
H        1.12430600       1.20622755       0.97124163
H        0.51940775      -0.46574219       1.06288660
H        0.20110862       0.51217787      -0.39667659
H        2.99912910      -0.36282309       0.55084637
H        3.74180049      -2.15986996      -1.79262284
H        2.26917032      -2.13247591      -2.82304139
H        4.05043814       0.01517728      -3.09864755
H        3.37760893       1.59324485      -1.03181991
