11
Properties=species:S:1:pos:R:3 -1295.4848266073072=T 10.018004=T 9.91341=T -9.2484=T -7.3447=T -10.046=T -0.7403=T -2.4133=T -1.197=T 9.3518=T 1.88798=T 3.3621779564=T 5.2032956648=T 0.29821058=T pbc="F F F"
C        1.08957284      -0.05592736       0.10567725
C        2.39894271       0.02534084      -0.14167468
O        3.18039682      -1.09755949      -0.42598020
C        4.45860155      -0.63200015      -0.62242904
C        4.60556883       0.70597632      -0.49510292
C        3.28359007       1.24943846      -0.17231538
O        2.92449408       2.40582425       0.03312489
H        0.55513821       0.86892794       0.31840031
H        0.55375084      -1.00331578       0.10026573
H        5.17973458      -1.41266135      -0.85486209
H        5.52217947       1.27443632      -0.60848386
