18
Properties=species:S:1:pos:R:3 -1742.7236827696443=T 11.116836=T 12.243=T -8.8056=T -6.604=T -10.276=T 0.8533=T -0.1058=T 2.852=T 9.59035=T -2.53683=T 8.314563153=T 10.7564922202=T 0.06655383=T pbc="F F F"
C        2.17572644      -0.51018387      -1.36861364
C        2.47735242       0.08457732       0.00474954
O        3.01566624      -0.91257681       0.89536751
C        3.40373948       1.29951412      -0.07266944
C        2.73800353       2.60112052      -0.60158883
N        2.52871955       3.03508307       0.80533072
C        3.55812178       2.06144429       1.26886110
H        1.69842658       0.22619752      -2.03131579
H        1.50429081      -1.37385551      -1.27159205
H        3.10480490      -0.84728318      -1.85805999
H        1.53635902       0.39625765       0.48830989
H        3.80817354      -1.28621222       0.46798839
H        4.34479482       1.01539669      -0.57103044
H        1.80902707       2.49641457      -1.18700496
H        3.45039389       3.22126916      -1.17622242
H        2.74670976       4.01615981       0.99078648
H        4.57068938       2.48871592       1.38661604
H        3.29073078       1.50718092       2.18132787
