14
Properties=species:S:1:pos:R:3 -1391.1901854894493=T 11.016063=T 11.23031=T -8.553=T -6.5649=T -9.394=T 0.4401=T -1.2633=T -0.467=T 8.82916=T 0.94351=T 4.9631843772=T 0.295998114=T pbc="F F F"
C        1.29316188       0.10350847      -0.44129937
O        2.70556334       0.29972153      -0.39872850
C        3.13404931       1.56080332      -0.05581355
C        2.34621704       2.61575671       0.23654899
C        4.60443169       1.57392985      -0.05984656
N        5.26490769       2.63462996       0.24221707
O        6.65120126       2.39858659       0.16535376
H        1.14271271      -0.94342119      -0.72704291
H        0.82397991       0.76471793      -1.18844959
H        0.83817400       0.28945254       0.54562726
H        1.26128855       2.56522147       0.22923208
H        2.82129841       3.55978960       0.49174880
H        5.10992588       0.63814360      -0.33069188
H        7.01792833       3.26625962       0.41538440
