19
Properties=species:S:1:pos:R:3 -1812.7747966414502=T 12.042543=T 13.41711=T -8.6671=T -6.5198=T -9.918=T 0.9016=T -0.0141=T 3.178=T 9.45396=T -2.89406=T 8.073534369=T 11.1338932056=T 0.231222344=T pbc="F F F"
C        1.02603961      -0.09981638       0.05534408
C        2.53565535      -0.05846331       0.01342475
C        3.33087763      -0.69826507      -1.12760291
N        2.75423768      -1.36181832      -2.27764436
C        3.26420079       0.80298390      -0.99929139
C        4.49053129       1.60335317      -0.62758660
N        5.27047837       1.92928884      -1.83201549
H        0.61558626       0.77403853       0.58377370
H        0.66504931      -1.00212185       0.57369795
H        0.59177952      -0.10587414      -0.95528342
H        3.01903009      -0.13073493       0.99353109
H        4.28021297      -1.15123703      -0.82039127
H        2.09174439      -0.75302553      -2.75983893
H        2.24315419      -2.20329449      -1.99840026
H        2.62376831       1.29892875      -1.73800516
H        5.05656455       1.04066875       0.14487097
H        4.18105550       2.55385922      -0.15990315
H        5.58327400       1.06185509      -2.27720553
H        6.11480019       2.44620481      -1.57606407
