15
Properties=species:S:1:pos:R:3 -1435.2830855641823=T 9.604749=T 10.54562=T -8.8475=T -6.6258=T -10.017=T 0.9485=T 0.012=T 3.256=T 9.57493=T -2.94928=T 8.079671676=T 9.9510171712=T 0.120887986=T pbc="F F F"
C        2.42750001      -0.88141545      -0.77046009
O        2.05145889       0.28511415      -0.03857778
C        3.12565927       1.17307138       0.12882049
C        3.50448341       2.11331168      -1.00508603
C        2.80416872       2.64063104       0.22547916
N        3.48198599       3.56998888       1.10343870
H        1.52634085      -1.49943798      -0.87029266
H        3.20460677      -1.45864322      -0.23616018
H        2.80815821      -0.62232186      -1.77467570
H        3.94522494       0.79163538       0.75487277
H        2.92093370       2.05704035      -1.92464284
H        4.56123381       2.35251687      -1.14426800
H        1.74538944       2.87559241       0.08358885
H        4.49315031       3.42324012       1.06911986
H        3.19372566       3.41518626       2.07359344
