15
Properties=species:S:1:pos:R:3 -1542.899348960563=T 12.486528=T 13.62286=T -8.8449=T -6.952=T -9.397=T 0.999=T -0.6588=T 0.316=T 8.72544=T 0.1988=T 3.677982697=T 11.3461696362=T 0.293697396=T pbc="F F F"
C        0.95623118      -0.06076659       0.00007132
C        2.49466132      -0.06043161       0.00374501
C        3.07347871       1.27615596       0.01184957
C        3.53202584       2.40562985       0.02331205
C        4.01477562       3.76240807       0.01304259
N        5.38809292       3.89963392       0.15328473
N        3.26380290       4.81378728      -0.07252268
H        0.57714412      -1.09181458      -0.00566505
H        0.56739217       0.45635697      -0.88713221
H        0.56358621       0.44775997       0.89050386
H        2.87120386      -0.60500265      -0.87881509
H        2.86781727      -0.61449572       0.88165638
H        5.96212605       3.12468608      -0.16246759
H        5.73584807       4.82899779      -0.07348853
H        2.27817378       4.53352525      -0.09808437
