13
Properties=species:S:1:pos:R:3 -1375.904305724254=T 10.075522=T 10.11644=T -8.4043=T -6.3605=T -8.311=T 0.6835=T -0.9025=T 0.629=T 7.85909=T -0.09829=T 4.6360721134=T 7.604123373=T 0.415617353=T pbc="F F F"
N        0.86570872       0.00258842       0.12385686
C        2.33589707       0.00121050       0.03732734
C        2.91544959       1.18145907      -0.70568645
C        3.77111212       0.73326380      -1.65250483
C        3.76975926      -0.73608490      -1.65134881
C        2.91337488      -1.18125030      -0.70377850
H        0.55966738       0.82036563       0.65781902
H        0.55822680      -0.81361779       0.65939900
H        2.83764337       0.00155446       1.03823436
H        2.68882543       2.21803028      -0.46060147
H        4.37666645       1.34879773      -2.31772601
H        4.37427850      -1.35375531      -2.31554042
H        2.68491041      -2.21700158      -0.45695008
