17
Properties=species:S:1:pos:R:3 -1659.84848191342=T 12.267185=T 12.6572=T -8.1116=T -6.2339=T -8.871=T 1.3204=T -0.1241=T 0.765=T 8.22358=T -0.19583=T 4.7216100548=T 5.2639372174=T 0.318645577=T pbc="F F F"
C        0.81744910       0.44276052      -0.00729668
C        2.29150569       0.10938881       0.10580163
C        3.23952442       1.05318500       0.90110153
C        3.81546567      -0.20315431       1.59590946
N        2.64283371      -0.95697035       1.07914638
N        2.63412269      -2.24965184       0.69703906
C        3.45464128      -3.07457558       1.25863077
H        0.26074642      -0.41544504      -0.40918543
H        0.66591735       1.29559138      -0.68544017
H        0.40004336       0.69572463       0.97801288
H        2.71400640      -0.12792628      -0.88852222
H        2.69314187       1.70916705       1.59138243
H        3.94312709       1.64582319       0.30626525
H        4.76019554      -0.56404747       1.14633655
H        3.91644093      -0.18769788       2.69113606
H        3.39146280      -4.12073406       0.95866021
H        4.18216567      -2.78581777       2.03031230
