14
Properties=species:S:1:pos:R:3 -1467.6144590891881=T 13.340176=T 13.39277=T -7.343=T -5.5196=T -7.665=T 0.8526=T -0.0777=T 0.408=T 7.10302=T 0.20028=T 3.9829510612=T 6.2076938522=T 0.365452061=T pbc="F F F"
C        2.85135488      -1.26233791       0.40664390
N        2.29586341      -0.01433315      -0.09574426
C        3.04673078       1.15339835      -0.01251435
C        2.63174437       2.45748331      -0.21893953
C        3.69227932       3.39922353      -0.09908765
C        4.90595402       2.82960795       0.19278997
S        4.76627827       1.10016293       0.34729142
H        2.11003399      -2.05959493       0.27413630
H        3.14220819      -1.21688415       1.47364167
H        3.74116491      -1.53398280      -0.18116334
H        1.32005881       0.13215549       0.15484203
H        1.60318525       2.72075496      -0.46349407
H        3.55901952       4.47211941      -0.23544801
H        5.87727429       3.29660702       0.31922590
