9
Properties=species:S:1:pos:R:3 -1060.9211642698012=T 9.391742=T 9.76105=T -10.2143=T -8.115=T -9.891=T -0.0047=T -1.7718=T -0.742=T 9.2688=T 1.23209=T 4.0183986586=T 6.6112558836=T 0.566550172=T pbc="F F F"
C        0.98736106       0.00448003       0.00039111
C        2.20009168       0.01060131       0.00056800
C        3.61733973       0.00578305       0.00084932
N        4.31977034       1.13306485       0.00183980
O        5.65134132       0.67549821       0.00157870
C        5.58670348      -0.67301659       0.00070171
N        4.38071981      -1.15658696      -0.00001479
H       -0.08364771      -0.00062845      -0.00057096
H        6.53106028      -1.21148545       0.00042712
