17
Properties=species:S:1:pos:R:3 -1614.0546146030422=T 11.923682=T 12.44248=T -8.522=T -6.5158=T -9.097=T 1.2179=T -0.331=T 0.622=T 8.56252=T -0.00448=T 4.8332966436=T 5.3552529064=T 0.201503926=T pbc="F F F"
C        3.67475064      -1.39054284      -0.19969622
N        4.68319664      -0.39903104      -0.55687700
N        4.21483279       0.88522312      -0.59198755
C        5.00963888       1.87485921      -0.39743695
C        4.47051651       3.27628829      -0.54614884
C        5.28488417       4.08940579      -1.55850041
O        3.09834625       3.26347668      -0.91840289
H        4.11757720      -2.38916399      -0.31026950
H        2.83346281      -1.30401642      -0.89899505
H        3.29005214      -1.27895812       0.83003453
H        5.56015807      -0.50421963      -0.03171749
H        6.07481882       1.74753651      -0.13868616
H        4.56328687       3.77349193       0.44374345
H        5.24137255       3.61546104      -2.54920678
H        6.33667087       4.17223443      -1.24599568
H        4.86587590       5.10152127      -1.63576417
H        2.85478887       2.31295377      -0.95977328
