16
Properties=species:S:1:pos:R:3 -1631.4280107133195=T 12.869858=T 12.90911=T -8.4815=T -6.4445=T -8.296=T 0.7322=T -0.7861=T 0.362=T 7.81356=T 0.19638=T 5.0634146596=T 0.820655803=T pbc="F F F"
C        2.09502278      -0.80762434      -1.17334540
C        2.88639723      -0.26427735       0.02754637
C        3.02801841       1.22664626       0.00574451
C        4.19679532       1.89961291      -0.03228607
C        4.30771222       3.34615119      -0.06176057
C        5.47160032       4.02294790      -0.10881019
H        1.97565346      -1.89837654      -1.10538691
H        2.60800493      -0.57634905      -2.11783246
H        1.09006970      -0.36198375      -1.22114286
H        3.88439329      -0.72987045       0.06367148
H        2.36689730      -0.56367473       0.95604881
H        2.09322064       1.80295644       0.00798140
H        5.13683284       1.33338180      -0.04093691
H        3.36560179       3.90633318      -0.04396941
H        6.43105332       3.50027059      -0.12820713
H        5.49756646       5.11239594      -0.13040465
