15
Properties=species:S:1:pos:R:3 -1480.24622322099=T 9.621648=T 10.33726=T -9.4606=T -7.3956=T -10.552=T 0.7468=T -0.2127=T 0.389=T 9.89189=T 0.17811=T 4.3346993432=T 6.200415874=T 0.179343613=T pbc="F F F"
C        0.93779264      -0.52631240       0.24630083
C        2.33186041      -0.09668138      -0.20923792
C        2.94811624      -1.07240110      -1.21855815
N        2.27115656       1.26619976      -0.75265102
C        3.30532968       2.15233534      -0.67279936
O        4.38164934       1.93908384      -0.12235681
H        0.53405251       0.16597091       0.99801528
H        0.97356643      -1.53147337       0.68782369
H        0.23740045      -0.56546828      -0.60406693
H        3.00116108      -0.02973448       0.66259930
H        2.31892196      -1.15843895      -2.11792766
H        3.04761611      -2.07327695      -0.77400236
H        3.94637623      -0.72928811      -1.52011084
H        1.44494781       1.54664852      -1.27561546
H        3.05753255       3.12274666      -1.16425258
