13
Properties=species:S:1:pos:R:3 -1489.0479509532797=T 11.366021=T 11.17719=T -8.9787=T -6.9627=T -8.908=T -0.3553=T -1.99=T -0.736=T 8.48218=T 1.2779=T 3.4688555108=T 4.4583009866=T 0.316205778=T pbc="F F F"
C        1.00016343       0.00675172      -0.21169795
C        2.32211160      -0.05847884       0.04161663
C        3.19927806      -1.21356638       0.19335176
C        4.47299480      -0.83336048       0.44464601
C        4.61897902       0.66090474       0.49541169
C        3.19075498       1.16444857       0.22720357
O        2.83494347       2.32887279       0.17535048
H        0.51580595       0.98157519      -0.29019774
H        0.38909548      -0.88724780      -0.34233886
H        2.85754536      -2.24561459       0.11182635
H        5.30663227      -1.51925448       0.59495422
H        4.97518705       1.03677960       1.46862441
H        5.31014852       1.06314995      -0.26335057
