18
Properties=species:S:1:pos:R:3 -1760.6561783239376=T 10.962144=T 11.95174=T -9.0165=T -6.8558=T -10.463=T 0.8424=T -0.1321=T 2.804=T 9.80733=T -2.5043=T 8.1989710052=T 10.9968886756=T 0.132955883=T pbc="F F F"
C        0.95560050      -0.01924154       0.05089391
C        2.47848721       0.03292276      -0.05385601
N        2.85702000       0.04284339      -1.48109530
C        3.11403372       1.18890679       0.78113550
C        4.45960246       0.60567417       1.27556889
O        4.53334781      -0.74977414       0.78230553
C        3.17817160      -1.17219038       0.59499838
H        0.63155732      -0.09648342       1.09860132
H        0.56594959      -0.88078198      -0.50879708
H        0.50209974       0.88862263      -0.37541645
H        3.87814360      -0.00612861      -1.55231624
H        2.57979720       0.93248298      -1.90545915
H        2.46976507       1.45301781       1.63289437
H        3.24230776       2.09102171       0.16707190
H        5.34252166       1.13790309       0.89353203
H        4.50875828       0.60177130       2.38001279
H        3.18467805      -2.06004227      -0.05106790
H        2.70182841      -1.42061428       1.56547353
