17
Properties=species:S:1:pos:R:3 -1740.8627259600858=T 11.403832=T 12.42916=T -9.2839=T -7.1492=T -9.685=T 1.1975=T -0.1085=T 1.296=T 9.12365=T -0.71549=T 6.7342004012=T 0.425582268=T pbc="F F F"
C        0.85215560       0.09685779       0.24823786
C        2.18399856       0.16348617       0.34410368
C        3.03401111       1.36550661       0.03861093
C        2.34503410       2.73603092       0.05023876
C        3.48617820       3.66979565       0.47345498
C        4.22887809       2.80091175       1.48829189
O        4.10703483       1.44421978       1.02045130
H        0.31770476      -0.83024810       0.45995444
H        0.24597577       0.95522663      -0.04995976
H        2.75443616      -0.72323346       0.63807937
H        3.51163662       1.20274131      -0.95072820
H        1.54282546       2.74647445       0.80469816
H        1.90959758       2.99479589      -0.92404358
H        4.13600921       3.90105495      -0.38460502
H        3.13319867       4.61735025       0.90290017
H        5.30036232       3.03936505       1.56927310
H        3.77427294       2.88882436       2.49330192
