13
Properties=species:S:1:pos:R:3 -1392.1257183659395=T 12.05203=T 12.14608=T -9.1707=T -7.1054=T -8.975=T -0.0182=T -1.5792=T -0.249=T 8.48819=T 0.76062=T 4.0235440776=T 5.3474789842=T 0.273438118=T pbc="F F F"
N        1.03233336      -0.03858253       0.39667214
C        2.36368486      -0.09149524      -0.01818070
N        3.00058438      -1.12410515      -0.45010960
C        3.07004426       1.23624878      -0.02591654
C        2.39710973       2.40861068      -0.09524521
C        4.49409641       1.20820011       0.01840550
C        5.70809669       1.21613560       0.07350203
H        0.81752252       0.64520038       1.11930342
H        0.59939671      -0.94310608       0.56460031
H        2.41276307      -1.96859500      -0.40466186
H        1.31121721       2.43399674      -0.17887044
H        2.93393007       3.35586900      -0.11380342
H        6.77781072       1.20465270       0.11352437
