14
Properties=species:S:1:pos:R:3 -1445.9672062361572=T 10.253895=T 10.77937=T -9.1116=T -7.0735=T -9.927=T 0.8108=T -0.8837=T -0.316=T 9.44081=T 0.79179=T 4.1379831556=T 5.4697539774=T 0.296913522=T pbc="F F F"
C        1.84452530      -0.39325811      -0.94372392
O        3.18175217       0.09202393      -0.79639565
C        3.31597251       1.37989673      -0.33827329
C        2.32574863       2.22632728      -0.01133658
C        4.76381705       1.80902923      -0.21964562
N        5.66808806       0.85280389      -0.58581628
O        5.08288457       2.92921600       0.17433571
H        1.93210565      -1.41979988      -1.31585519
H        1.28413087       0.22018536      -1.66738360
H        1.31898466      -0.39045057       0.02470079
H        1.27161519       1.97069837      -0.07729793
H        2.61316263       3.21596666       0.33610526
H        5.36230054      -0.05976770      -0.90405601
H        6.65428218       1.07903882      -0.52749770
