14
Properties=species:S:1:pos:R:3 -1510.0076567632664=T 10.772954=T 11.22149=T -7.601=T -5.6564=T -7.987=T 0.9283=T -0.0473=T 0.934=T 7.46338=T -0.36599=T 4.7290368162=T 6.0230662996=T 0.406135257=T pbc="F F F"
C        0.93080155       0.01452847      -0.00908192
C        2.42890258       0.00568673      -0.00130879
C        3.28475759       1.09997227       0.00543477
N        4.57819692       0.63745054       0.01091258
C        4.59063518      -0.74690720       0.00794737
C        3.26687714      -1.15157422       0.00032483
O        2.86524687      -2.46998608      -0.00452405
H        0.54572575       1.04298271      -0.00199348
H        0.50710108      -0.49316396       0.87384520
H        0.51615308      -0.47785155      -0.90488117
H        3.06230454       2.16213650       0.00671823
H        5.40508890       1.22044958       0.01651368
H        5.50987580      -1.31997652       0.01143528
H        1.89285300      -2.48479727      -0.00982254
