17
Properties=species:S:1:pos:R:3 -1664.5546002388387=T 10.587243=T 12.03864=T -9.4868=T -7.2897=T -11.341=T 0.9904=T 0.0685=T 2.99=T 10.75787=T -2.71306=T 9.2597208296=T 11.6534069442=T 0.122254498=T pbc="F F F"
C        1.46790766       1.32193903      -0.68850567
O        2.82643690       0.92594338      -0.56587877
C        3.59332326       1.87956781       0.15825337
C        5.02376432       1.37870977       0.23827421
C        5.92788583       1.53712113      -1.00162910
C        6.81870058       2.38716952      -0.07769533
O        5.85216467       2.29789910       1.01443666
H        0.95343036       0.54090562      -1.26251368
H        1.37311678       2.28612795      -1.22344313
H        0.98454273       1.42197506       0.30171387
H        3.19800777       2.01002360       1.18652713
H        3.56681501       2.87024958      -0.34053949
H        5.03345368       0.36380855       0.67528722
H        5.45584380       2.08971825      -1.82409207
H        6.37429124       0.61498861      -1.39083908
H        7.77908652       1.92217183       0.20194309
H        6.99441890       3.43239120      -0.37778920
