16
Properties=species:S:1:pos:R:3 -1517.4815783104864=T 11.022509=T 11.64675=T -9.3892=T -7.3549=T -10.61=T 1.1659=T -0.5732=T 0.378=T 10.1289=T 0.23052=T 5.3949656222=T 6.4584679358=T 0.224395487=T pbc="F F F"
C        3.90990461      -1.14504287       0.01738062
O        3.06205440      -0.14219188       0.57539812
C        3.18404396       1.11520741      -0.09557310
C        4.47190894       1.81491226       0.22704229
N        5.27803884       2.11265192      -0.72725724
O        6.42584253       2.76834975      -0.24712556
C        7.27269494       3.08644684      -1.35982414
H        3.72783904      -2.06164896       0.59201351
H        4.97793307      -0.87686994       0.09126329
H        3.66559149      -1.32683554      -1.04560930
H        2.33452649       1.71618382       0.26561092
H        3.09496012       0.99927824      -1.19124266
H        4.70676603       2.04768599       1.27496757
H        8.15211190       3.57476314      -0.92284550
H        6.76752154       3.77476027      -2.05391602
H        7.57668209       2.17528956      -1.89624282
