19
Properties=species:S:1:pos:R:3 -1822.5498645499113=T 12.328697=T 13.18279=T -8.2499=T -6.3541=T -9.147=T 0.7596=T -0.163=T 1.08=T 8.25268=T -0.50775=T 5.0251897758=T 8.4569734726=T 0.218301547=T pbc="F F F"
C        0.80420811       0.05384150       0.00397051
C        2.31384138      -0.18777415       0.02025874
C        3.11076703       1.12597691       0.03814696
N        4.55687023       0.95263936       0.04379749
C        5.20518005       0.74916893       1.32793499
C        5.26290367       0.80052974      -1.13244635
N        4.86430825       0.81492692      -2.35786899
H        0.24931386      -0.89436955      -0.00561029
H        0.49979217       0.62550456      -0.88623041
H        0.47847177       0.62112597       0.88954420
H        2.61582459      -0.77489720      -0.86143086
H        2.58690655      -0.78823317       0.90338188
H        2.83853706       1.71707023       0.92915176
H        2.83863124       1.74235045      -0.83562199
H        5.01272925       1.59927289       2.00255512
H        6.28963011       0.67082339       1.17850658
H        4.86326051      -0.17337700       1.82848703
H        6.33953706       0.66705086      -0.94847299
H        3.84351711       0.92546935      -2.43054339
