14
Properties=species:S:1:pos:R:3 -1433.2710279636435=T 11.610982=T 12.03058=T -9.1085=T -7.1123=T -9.679=T 0.43=T -1.2277=T -0.168=T 9.13376=T 0.73054=T 3.9463379954=T 11.3934578966=T 0.426044468=T pbc="F F F"
C        1.00779060      -0.28251142       0.03841411
C        2.49400427       0.10871177      -0.00492215
C        2.68550726       1.60892645      -0.02635053
N        2.77237213       2.35112365      -1.09189885
O        2.67031347       1.57271065      -2.26438929
C        2.75044639       2.30241564       1.21690102
C        2.79376627       2.80070541       2.32594186
H        0.90277801      -1.37585510       0.06869222
H        0.48013913       0.08812729      -0.85041956
H        0.51570785       0.13201662       0.92929212
H        2.96914207      -0.31574151      -0.89981866
H        3.01268737      -0.28892731       0.87880905
H        2.77811555       2.25234371      -2.95343995
H        2.83559964       3.26716416       3.28885859
