13
Properties=species:S:1:pos:R:3 -1390.8859827595527=T 9.289815=T 9.98839=T -9.0437=T -6.9941=T -10.252=T 0.8164=T -0.1151=T 0.684=T 9.81339=T -0.08473=T 4.743332402=T 6.4874930584=T 0.151915457=T pbc="F F F"
O        1.72547937       0.03579725       1.36264274
C        2.39421944       0.01023752       0.33980082
N        2.82675892      -1.12861034      -0.35382342
C        3.86307213      -0.79586972      -1.29430645
C        5.09576003      -0.05841962      -0.79527744
C        3.89417863       0.71740509      -1.31176625
N        2.87288876       1.11403906      -0.37967369
H        2.84939138      -1.99413375       0.17767608
H        3.90142924      -1.37883643      -2.21475240
H        5.29158420      -0.05001371       0.27785872
H        5.97536538      -0.08393240      -1.43924722
H        3.95597570       1.27689299      -2.24541265
H        2.93120682       1.98995405       0.13168117
