16
Properties=species:S:1:pos:R:3 -1683.6243517315788=T 10.565603=T 11.43516=T -8.4921=T -6.4228=T -9.867=T 0.9341=T 0.0345=T 3.198=T 9.25702=T -2.89599=T 8.058594056=T 11.6168806686=T 0.131198521=T pbc="F F F"
C        0.56554317       1.22894461       0.66744596
C       -0.87507631       0.79241085       0.43787600
C       -0.88105972      -0.00239850      -0.87039380
C        0.55134838      -0.01319409      -1.39038726
C        1.22597865      -0.00678942      -0.00179511
N        0.55980875      -1.18042568       0.62921161
C       -0.82762554      -0.73536615       0.45157984
H        0.82245188       2.17144191       0.16025863
H        0.82459447       1.31604333       1.73491654
H       -1.73991063       1.35810001       0.77981329
H       -1.75508421      -0.04721217      -1.51728490
H        0.79310124      -0.92420107      -1.95530238
H        0.80690448       0.87477124      -1.98636954
H        2.31938141      -0.07084213       0.02389380
H        0.78583469      -1.19640212       1.63100491
H       -1.63276069      -1.36836060       0.81922243
