12
Properties=species:S:1:pos:R:3 -1274.718039165491=T 8.869386=T 9.34253=T -9.5619=T -7.4469=T -10.731=T 0.5565=T -1.5049=T -0.301=T 10.37979=T 0.91928=T 3.6650385586=T 6.306485897=T 0.156183258=T pbc="F F F"
O        1.74239023      -0.60192810      -0.77978662
C        1.99646467       0.24609597       0.05145318
C        3.21010872       1.17669279      -0.02259784
C        3.66597532       1.47544959      -1.45098717
C        3.13380821       2.87448293      -1.59035467
N        2.68792570       3.39924042      -0.50594953
O        2.82048579       2.46987050       0.55047770
H        1.35161138       0.41474019       0.94795451
H        3.99904868       0.76252247       0.62634295
H        3.21891456       0.76431330      -2.16231302
H        4.75855270       1.45004964      -1.58088651
H        3.11919404       3.46994031      -2.50240299
