19
Properties=species:S:1:pos:R:3 -1760.750855968629=T 11.390473=T 12.43332=T -9.0203=T -6.8666=T -10.21=T 0.7806=T -0.1944=T 2.905=T 9.5247=T -2.61376=T 8.0654256846=T 12.4650316988=T 0.091544083=T pbc="F F F"
C        2.88461040       0.02771864       1.75384198
N        3.10234704       0.43336585       0.36451962
C        3.60051115       1.80650215       0.22557751
C        5.12318906       1.88238353       0.42003397
N        5.90221023       1.07807478      -0.53818253
C        5.64873622       3.31925480       0.34168594
O        7.06309323       3.34846990       0.48456925
H        2.41729392      -0.96616829       1.77528727
H        2.24563791       0.73003899       2.32952338
H        3.84620680      -0.05398079       2.28179666
H        2.22474979       0.34306454      -0.14833209
H        3.10532215       2.50757245       0.93508704
H        3.36144650       2.15520656      -0.79356564
H        5.37712629       1.49906766       1.42394991
H        5.61988027       1.33230352      -1.49240273
H        5.63732597       0.09522053      -0.42992460
H        5.21415843       3.93589689       1.14392055
H        5.33960377       3.76777226      -0.62840988
H        7.35555086       2.51502606       0.05209438
