12
Properties=species:S:1:pos:R:3 -1324.270220045959=T 10.179018=T 10.43468=T -9.8885=T -7.8658=T -10.999=T -0.5445=T -2.2882=T -1.152=T 10.18858=T 1.72062=T 3.9095637478=T 5.6643500044=T 0.518279175=T pbc="F F F"
C        0.48649759       1.21897222      -0.06579714
C        1.23844237       0.11136482      -0.05980486
C        2.71777604       0.19855232      -0.21648851
O        3.33940012       1.24459458      -0.34982635
N        3.36064808      -1.05418033      -0.19906505
C        4.73584119      -1.23475338      -0.32791176
O        5.25624003      -2.33674796      -0.31002340
H       -0.59629714       1.17469756       0.04721513
H        0.95929480       2.19562263      -0.18633209
H        0.78542459      -0.87687373       0.05941000
H        2.81117870      -1.90695712      -0.08789581
H        5.27677363      -0.27655162      -0.44543017
