15
Properties=species:S:1:pos:R:3 -1603.6572649476395=T 10.647432=T 11.32032=T -8.228=T -6.1339=T -8.709=T 0.9505=T 0.0039=T 1.248=T 8.30378=T -0.68231=T 5.7118118452=T 0.23073154=T pbc="F F F"
C        0.85232167      -1.11833490       0.91855395
C        1.12301677      -0.39428467      -0.36934813
C        0.88807908       1.09276395      -0.52217295
O       -0.28986081       1.58949085       0.15712859
C       -1.41454939       0.81003722       0.02393220
C       -1.39636304      -0.51619661      -0.19408704
C       -0.11553481      -1.25757388      -0.26113760
H        1.48380697      -1.97204354       1.16759336
H        0.49219199      -0.53933958       1.77024589
H        1.94035680      -0.76771472      -0.99254796
H        1.71762265       1.68521197      -0.11010783
H        0.78773024       1.32804798      -1.59781418
H       -2.32602072       1.39491651       0.15673498
H       -2.34273112      -1.05154454      -0.26618221
H       -0.12038629      -2.21637604      -0.78244107
