14
Properties=species:S:1:pos:R:3 -1414.4202816226202=T 10.605737=T 11.07539=T -10.3669=T -8.2096=T -11.101=T 0.8135=T -0.954=T 0.041=T 10.56261=T 0.49527=T 4.362943354=T 6.6650410104=T 0.330442971=T pbc="F F F"
C        0.95052656      -0.54311136       0.18710137
C        2.47679618      -0.44526838       0.03875641
C        2.93628435       0.96882033      -0.11897372
N        3.74370260       1.46654257       0.74110484
O        4.02276145       2.84065382       0.36568628
C        4.87698339       3.46895135       1.23801523
O        5.38841963       3.02428361       2.23189368
H        0.63970739      -1.59422333       0.25447189
H        0.43256975      -0.09359353      -0.67267318
H        0.61117821      -0.02729220       1.09580474
H        2.79444718      -1.00857333      -0.85556731
H        2.98732971      -0.88844854       0.90510834
H        2.56060430       1.56355336      -0.96505590
H        5.00738929       4.49588563       0.83752734
