15
Properties=species:S:1:pos:R:3 -1541.310735376226=T 11.372902=T 12.31068=T -9.4547=T -7.4113=T -10.052=T 1.0669=T -0.7106=T 0.632=T 9.52952=T -0.17408=T 5.3194581482=T 6.627299672=T 0.402235916=T pbc="F F F"
C        2.67270931      -0.74879908      -1.17455013
N        2.32393458       0.03583739       0.01425320
C        2.89268385       1.38846497       0.02385392
C        2.43005763       2.16001534       1.24028101
C        1.72175846       3.28889771       1.17908984
C        4.37949971       1.38170365      -0.02937821
N        5.54332996       1.28795392      -0.05862005
H        2.22692852      -1.74709315      -1.07819589
H        3.76026899      -0.86141932      -1.34337884
H        2.23260975      -0.27168918      -2.06302990
H        2.63307868      -0.45780069       0.85618784
H        2.53948104       1.90731334      -0.88422667
H        2.71697460       1.73470150       2.20711796
H        1.43481392       3.73458500       0.22393219
H        1.40365100       3.80680861       2.08425370
