14
Properties=species:S:1:pos:R:3 -1480.9684661740307=T 10.627184=T 11.64167=T -9.2993=T -7.2531=T -9.616=T 0.9212=T -0.3044=T 0.666=T 9.03023=T -0.16765=T 5.3726109464=T 6.1697417376=T 0.319207842=T pbc="F F F"
C        1.33893539      -0.27448266       0.53179288
O        2.71694276       0.03088477       0.29319291
C        3.02511010       1.34379761       0.09346263
C        2.16784348       2.37629015       0.03561778
C        4.52323530       1.49739072      -0.07577429
C        5.26827746       1.20633134       1.15010685
N        5.87174396       0.98935392       2.12378528
H        1.29663694      -1.35626199       0.69647803
H        0.72019861      -0.00514537      -0.33909407
H        0.97211678       0.25565437       1.42479125
H        1.09285002       2.25770043       0.14569045
H        2.55023236       3.38209387      -0.12113126
H        4.75696163       2.52145562      -0.39635080
H        4.87525521       0.81079722      -0.86270764
