15
Properties=species:S:1:pos:R:3 -1565.2474973486517=T 11.206016=T 11.40019=T -7.9805=T -6.056=T -8.246=T 0.7018=T -0.2326=T 0.844=T 7.81947=T -0.22333=T 4.4316068008=T 6.9686703258=T 0.236030961=T pbc="F F F"
C        0.95974470      -0.05398217      -0.04202385
C        2.49670544       0.00346404      -0.07950504
C        3.03573683       1.26837916       0.54985882
C        3.47633424       1.24960831       1.81767911
N        3.49855356       0.03659042       2.52884737
C        3.44092569      -1.13297855       1.76659865
N        3.04183092      -1.22016042       0.55393132
H        0.60648072      -0.99045573      -0.49739885
H        0.52881096       0.79389934      -0.59502220
H        0.59790006      -0.00954177       0.99552752
H        2.80095834      -0.03365150      -1.14108719
H        3.06631565       2.19388548      -0.02533346
H        3.85916012       2.12181367       2.34635963
H        4.04250174      -0.00055004       3.38580537
H        3.79761104      -2.02975022       2.28752279
