16
Properties=species:S:1:pos:R:3 -1518.452631859401=T 9.364443=T 10.34156=T -9.9678=T -7.6885=T -11.708=T 0.922=T -0.0138=T 2.889=T 11.00369=T -2.61274=T 9.2744131706=T 11.4521280718=T 0.094627553=T pbc="F F F"
C        3.13473228       0.55570810       2.69641514
O        3.94727398       1.47272637       1.97336848
C        3.39683983       1.86344206       0.69917425
C        2.27505475       2.88855657       0.83786930
C        4.58342621       2.41008827      -0.09168264
O        5.63319446       1.45504045      -0.20973174
H        3.71093454       0.24732188       3.57812807
H        2.89852720      -0.33745646       2.08880981
H        2.18918720       1.01331072       3.03688629
H        3.02480640       0.95252956       0.18766176
H        2.63989489       3.78885513       1.35306690
H        1.42461804       2.48615302       1.40435467
H        1.90014064       3.18086577      -0.15398944
H        4.93927635       3.33814565       0.39836630
H        4.26257933       2.66365149      -1.11275738
H        5.76808393       1.11700140       0.69686023
