18
Properties=species:S:1:pos:R:3 -1745.9063546502514=T 11.172965=T 12.27174=T -9.0453=T -6.8972=T -10.147=T 0.7748=T -0.2005=T 2.907=T 9.69611=T -2.5739=T 7.9293014552=T 10.54128972=T 0.158786657=T pbc="F F F"
N        0.77999369       0.42093155      -0.68825381
C        2.10309904       0.16407959      -0.12171450
C        2.14243383       0.34310622       1.39300978
C        0.86500398      -0.14446419       2.09630149
O        0.42135240      -1.42074034       1.64108829
C        2.87901295      -0.96666204      -0.74092390
C        3.36783506       0.46311493      -0.90524070
H        0.78483626       0.22596314      -1.69216794
H        0.54140230       1.41342566      -0.59159197
H        2.28627601       1.41066537       1.64261605
H        3.02085996      -0.19398451       1.78299792
H        0.06447187       0.60846989       1.96801487
H        1.04932554      -0.24053495       3.17701649
H        0.17292934      -1.26288541       0.70658285
H        2.45026977      -1.45876433      -1.61668849
H        3.42746571      -1.63578748      -0.07759181
H        4.25992670       0.77118718      -0.35609140
H        3.25889558       0.92404970      -1.88869322
