14
Properties=species:S:1:pos:R:3 -1453.6982471854715=T 9.962232=T 10.50769=T -8.9556=T -6.9321=T -10.185=T 1.2112=T -0.404=T 0.458=T 9.69382=T 0.14795=T 5.2114539436=T 11.1915590942=T 0.164054152=T pbc="F F F"
C        0.88016619      -1.10317448       0.92162587
C        1.15439609      -0.40581935      -0.37197643
C        0.85619179       1.06973125      -0.49595981
O       -0.26608790       1.48700766       0.31302154
N       -1.48639225       0.78890945       0.06531130
C       -1.35579940      -0.46807951      -0.19864967
C       -0.10271162      -1.24256122      -0.24969262
H        1.46582213      -1.98853303       1.16724332
H        0.55099196      -0.50310373       1.76984480
H        1.95292556      -0.78568903      -1.01420736
H        1.68461760       1.69619073      -0.13503393
H        0.65049963       1.32067216      -1.55354606
H       -2.31020459      -0.97397832      -0.37502971
H       -0.15039521      -2.21311258      -0.74431121
