15
Properties=species:S:1:pos:R:3 -1500.7151926878005=T 11.393806=T 11.73382=T -9.1434=T -7.2831=T -9.905=T 0.7078=T -1.0699=T -0.173=T 9.31971=T 0.69071=T 4.3419029298=T 5.3933042098=T 0.537197806=T pbc="F F F"
C        0.61484975       0.52115566      -0.16578396
C        2.09282266       0.17923659      -0.00962632
C        2.97791630       1.41083014      -0.04373823
O        2.57411243       2.56219283      -0.16994467
N        4.34985048       1.19180447       0.08030004
N        4.89469233      -0.03881848       0.22381778
C        6.17360511      -0.12000751       0.32996785
H        0.00944015      -0.39459723      -0.13354378
H        0.42371966       1.03037821      -1.11943873
H        0.27523632       1.19080070       0.63508000
H        2.43671165      -0.51074225      -0.79656715
H        2.28903326      -0.35476585       0.93398812
H        4.93672520       2.03680938       0.05638406
H        6.60428815      -1.11447995       0.44503765
H        6.84208656       0.75496327       0.31039736
