16
Properties=species:S:1:pos:R:3 -1551.9688526760199=T 10.097698=T 11.23185=T -9.1585=T -6.974=T -10.693=T 0.7295=T -0.3487=T 2.677=T 10.43099=T -3.05485=T 8.2351005256=T 10.8602932994=T 0.148782377=T pbc="F F F"
N        2.81164877      -1.06082617      -0.60359835
C        2.24965405       0.06972214       0.14637657
C        3.21272702       1.23040913       0.17848436
O        4.38355948       1.00963539       0.96735575
C        3.46844231       2.06588237      -1.05070225
C        2.74620254       2.67275666       0.13717223
O        3.38630517       3.61479719       0.96032396
H        2.20111892      -1.87632691      -0.52201160
H        3.71072560      -1.32411628      -0.19175215
H        1.96813490      -0.17008611       1.19690124
H        1.32414498       0.39713261      -0.35480564
H        4.08057061       0.84142961       1.88084846
H        2.91265729       1.81589719      -1.95486961
H        4.49771358       2.39109087      -1.20987787
H        1.67844225       2.88742030       0.05676115
H        4.23505251       3.20405200       1.22396374
