13
Properties=species:S:1:pos:R:3 -1385.606651060284=T 10.403577=T 10.867=T -7.6818=T -5.7195=T -8.369=T 0.7379=T -0.1423=T 0.792=T 7.91123=T -0.27912=T 4.8123802054=T 9.3399521702=T 0.2976314=T pbc="F F F"
C        0.97282495      -0.03208019      -0.00713711
C        2.44624602       0.10771858       0.00041517
C        3.28785055       1.16105232       0.00457231
N        4.58924139       0.65259471       0.01029796
C        4.56111260      -0.72956367       0.01086650
N        5.56809343      -1.51450868       0.01657882
O        3.20239653      -1.07334051       0.00389993
H        0.50489132       0.96003130      -0.00645628
H        0.61903231      -0.58319020       0.87778039
H        0.62735749      -0.57805558      -0.89853247
H        3.07616967       2.22330003       0.00347303
H        5.45619479       1.17425456       0.01696567
H        5.27079894      -2.49319268       0.01561608
