21
Properties=species:S:1:pos:R:3 -2089.3974558678897=T 12.452557=T 13.73716=T -10.5028=T -8.1967=T -11.9=T 0.9093=T -0.0015=T 2.995=T 11.72436=T -2.73776=T 10.2056968138=T 10.3419078334=T 0.182368607=T pbc="F F F"
C        0.95508302       0.03695018       0.16240644
C        2.48290099       0.01086506       0.00574039
C        2.99639153      -1.33938261      -0.53911740
C        2.67952051      -1.54476484      -2.02815500
C        3.20958171      -0.38164848      -2.87839659
C        2.68796167       0.96908662      -2.36838887
C        3.00421846       1.16471952      -0.87784532
H        0.62217014       0.99220673       0.59609859
H        0.61582206      -0.76970737       0.82996340
H        0.43100650      -0.08838885      -0.79643034
H        2.91218757       0.14592410       1.01451653
H        2.57895242      -2.16717552       0.05800038
H        4.09225878      -1.37821463      -0.40403112
H        3.11348484      -2.49699962      -2.37325706
H        1.58861282      -1.63551469      -2.17202534
H        4.31459865      -0.38015647      -2.83943406
H        2.93439706      -0.52382774      -3.93598084
H        3.12852982       1.79240807      -2.95340211
H        1.59768174       1.02588994      -2.53279841
H        4.10038322       1.23136728      -0.75666283
H        2.59228650       2.12396331      -0.52259044
