15
Properties=species:S:1:pos:R:3 -1617.9121532912652=T 10.804711=T 11.45984=T -9.2355=T -7.0065=T -9.229=T 1.0276=T -0.8694=T 0.023=T 8.72975=T 0.66522=T 3.6659064606=T 6.1485525302=T 0.309358589=T pbc="F F F"
O        0.89294870       0.55816505      -0.63662600
C        1.95428927       0.28637596      -0.11060004
C        3.17213184       1.19697675      -0.03650791
C        3.75721731       1.30299833       1.40727548
C        3.43203361       2.74400180       1.88204337
C        3.03334908       3.45932747       0.61628585
C        2.89544832       2.62797126      -0.42421246
H        2.11633201      -0.71806370       0.36822378
H        3.90865464       0.71100637      -0.70723619
H        4.84415388       1.15097220       1.37805276
H        3.34289167       0.53515346       2.07741057
H        4.29394868       3.21564923       2.37974999
H        2.60500476       2.76480748       2.61311593
H        2.84133848       4.53301751       0.58272566
H        2.56723776       2.91140083      -1.42338078
