15
Properties=species:S:1:pos:R:3 -1667.950824372907=T 13.205793=T 12.91822=T -8.026=T -6.1539=T -7.97=T 0.5167=T -0.9986=T 0.203=T 7.36748=T 0.42122=T 4.3740029052=T 5.6827247296=T 0.502611767=T pbc="F F F"
C        1.17168744      -0.23138381      -0.61690579
C        2.46627214      -0.05294036      -0.29352656
C        3.14535107       1.22754785      -0.16138911
C        4.46101316       1.40084886       0.16735225
C        4.78591890       2.86284726       0.20245806
C        3.47949886       3.51601365      -0.14943569
C        2.54424978       2.56089993      -0.35656817
H        0.74325239      -1.23049111      -0.69466970
H        0.50314677       0.60849212      -0.81387684
H        3.08895373      -0.93438437      -0.10715196
H        5.17800201       0.60754884       0.37473955
H        5.58662084       3.12840374      -0.51272287
H        5.15743799       3.18448358       1.19304824
H        3.33395389       4.59257750      -0.22069716
H        1.50381103       2.73805631      -0.62651424
