7
Properties=species:S:1:pos:R:3 -884.534796630833=T 8.192581=T 8.50097=T -11.2879=T -9.2602=T -11.378=T -1.6964=T -3.6431=T -1.97=T 10.49504=T 2.456=T 3.2749414068=T 6.3441528438=T 0.25478252=T pbc="F F F"
O        0.91839702       0.04961666       0.00000000
C        2.13984725      -0.00345244       0.00000000
C        2.90469841      -1.22234629       0.00000000
C        3.55197714      -2.25053833       0.00000000
C        2.95055247       1.22620670       0.00000000
N        3.56584131       2.21884098       0.00000000
H        4.11359641      -3.16389728       0.00000000
