14
Properties=species:S:1:pos:R:3 -1477.0116487223363=T 10.908409=T 11.75217=T -9.5947=T -7.5505=T -10.109=T 0.8144=T -0.1472=T 0.294=T 9.97655=T 0.27331=T 4.3305458122=T 10.755351549=T 0.636679436=T pbc="F F F"
O        2.69474256       0.47819847      -2.25364773
C        2.15941292       0.94201793      -1.25228600
N        2.80944362       1.32108497      -0.11028868
C        4.25649779       1.29525395       0.01882371
C        4.87917487       2.70806828       0.01915787
C        4.39539524       3.53392229       1.11899107
C        3.95488726       4.18404360       2.04533222
H        1.05839552       1.09009170      -1.16667343
H        2.26750159       1.76793524       0.62588395
H        4.63564048       0.72579676      -0.83952086
H        4.53513364       0.76810170       0.94366546
H        4.65684273       3.20043224      -0.94116082
H        5.97544457       2.61112379       0.08341828
H        3.58997719       4.77772908       2.85868497
