20
Properties=species:S:1:pos:R:3 -1898.257926111999=T 11.694868=T 12.74315=T -9.4442=T -7.2776=T -10.66=T 0.7519=T -0.2227=T 2.666=T 9.96277=T -2.3358=T 8.2858975898=T 10.613325586=T 0.086923637=T pbc="F F F"
C        0.83865418      -0.06379108      -0.04229477
C        2.35690187       0.04214096      -0.03203254
O        2.85435696      -0.67823935      -1.15896890
C        2.93792270       1.49436652      -0.03452311
C        2.43992894       2.29947678      -1.24047011
C        2.60233659       2.22108393       1.27679339
N        4.40319387       1.29553979      -0.20688768
H        0.39185996       0.42132986       0.83601380
H        0.55197686      -1.12391791      -0.02617568
H        0.41775405       0.38278927      -0.95387829
H        2.73055770      -0.43157858       0.90489895
H        3.77657405      -0.34455418      -1.24909745
H        2.61551867       1.74846800      -2.17411583
H        2.96394716       3.26634042      -1.29813019
H        1.36608923       2.51257265      -1.15817852
H        2.94911481       1.64250668       2.14783172
H        1.52099726       2.38683131       1.39135399
H        3.09430351       3.20514394       1.30513919
H        4.82002800       0.99997352       0.68120925
H        4.85151363       2.17935749      -0.45959725
