15
Properties=species:S:1:pos:R:3 -1446.2210383248946=T 11.394843=T 12.01367=T -8.9261=T -6.93=T -10.258=T 1.299=T -0.3535=T 0.437=T 9.76198=T 0.18582=T 5.4264208704=T 6.2920663252=T 0.279531723=T pbc="F F F"
C        5.42417165      -0.87912610      -1.25724345
O        5.75993820       0.16142781      -0.33248269
N        4.84334909       1.21949066      -0.49604021
C        5.11756296       2.19524134       0.29354913
C        4.25702928       3.39084794       0.28347516
C        3.96308105       4.14427642       1.54339687
N        4.94283119       4.67813209       0.58484922
H        6.16513575      -1.66937494      -1.08478586
H        5.49349381      -0.52168606      -2.29569242
H        4.41169708      -1.26567939      -1.06546364
H        5.97802015       2.16942613       0.97635961
H        3.47405240       3.38062822      -0.47947692
H        4.39190161       3.79778840       2.48693233
H        2.97679508       4.60826120       1.62530213
H        4.51686069       5.42066628       0.02162074
