17
Properties=species:S:1:pos:R:3 -1745.6797281282425=T 12.112058=T 13.18784=T -9.2378=T -7.114=T -9.46=T 0.757=T -1.0538=T -0.157=T 8.94728=T 0.8085=T 3.6644186286=T 5.5953889912=T 0.265673397=T pbc="F F F"
C        0.98444876       1.78802663      -1.36105472
C        2.22081637       1.46237377      -0.58176118
C        3.47332805       1.53384448      -1.05564824
C        4.72412360       1.22584626      -0.26777958
C        5.67523920       0.27243370      -0.99231162
C        5.38792486       2.55671983       0.08493669
O        6.50671938       2.89423150      -0.25067743
H        0.30882390       0.91922139      -1.41289074
H        1.22252907       2.10151445      -2.38673651
H        0.41435634       2.59763092      -0.87775253
H        2.07030674       1.12926797       0.45293377
H        3.63806980       1.86266207      -2.08965832
H        4.41095966       0.79780855       0.70428782
H        5.97803954       0.68764722      -1.96362233
H        5.18651054      -0.69541687      -1.16538175
H        6.58992698       0.11091118      -0.40650044
H        4.73374723       3.23889694       0.68762712
