12
Properties=species:S:1:pos:R:3 -1336.54840220909=T 10.358983=T 11.07622=T -9.4756=T -7.392=T -9.931=T 0.7598=T -0.2555=T 0.487=T 9.67425=T 0.23091=T 4.3463664258=T 10.917711216=T 0.346927286=T pbc="F F F"
O        1.18370387       0.06535458       0.58433280
C        2.32462499       0.00198163       0.18860739
N        3.23745297       0.93677461      -0.24018616
C        4.31965219      -0.00642697      -0.55390480
C        3.38985084      -1.15037175      -0.02664436
C        3.04300944      -2.21399228      -0.93780198
C        2.74420021      -3.09922501      -1.71300401
H        3.15635494       1.94605487      -0.35185254
H        4.55025537      -0.08485947      -1.62485171
H        5.23703339       0.14762172       0.03160815
H        3.71952999      -1.54549962       0.94624312
H        2.47269181      -3.88016231      -2.39334590
