13
Properties=species:S:1:pos:R:3 -1428.51371768724=T 9.988036=T 10.63235=T -8.9056=T -6.7948=T -9.641=T 0.5387=T -1.3122=T 0.026=T 9.88566=T 0.74458=T 3.7413023472=T 6.2246303398=T 0.444062062=T pbc="F F F"
C        1.07084762      -0.09927758       0.18638910
C        2.37549791       0.03382855      -0.07690588
C        3.20386008       1.29026416      -0.11542801
C        4.57093825       0.82523309      -0.59945079
O        5.54783121       1.50615926      -0.83428077
C        4.48767856      -0.69174046      -0.74006073
O        3.16403661      -1.07752316      -0.35781956
H        0.59379259      -1.07764949       0.17700780
H        0.47129523       0.77696868       0.42089275
H        3.31553454       1.75429930       0.87723253
H        2.80428077       2.06124047      -0.78927868
H        4.68676924      -0.98806259      -1.78372636
H        5.22756740      -1.18385023      -0.08887139
