14
Properties=species:S:1:pos:R:3 -1510.8213690809844=T 10.694997=T 10.94924=T -8.0334=T -6.0169=T -7.984=T 1.0343=T -0.5313=T 0.725=T 7.52017=T -0.15216=T 4.4773328376=T 7.1495658998=T 0.564509195=T pbc="F F F"
C        0.93968684       0.04704198      -0.00370281
C        2.43381475       0.03489885       0.00013034
C        3.28857866       1.09243118      -0.00100986
C        4.67281190       0.61433575       0.00365436
C        4.68109899      -0.74148341       0.00777318
C        3.25945774      -1.22969768       0.00589585
H        0.54950803       1.07378074      -0.00450306
H        0.52709855      -0.46991993       0.87856297
H        0.53165806      -0.46944797      -0.88839902
H        2.99635235       2.14351595      -0.00481496
H        5.55009042       1.26159301       0.00378948
H        5.55365591      -1.39199293       0.01183564
H        3.03977439      -1.86236855      -0.87344178
H        3.03561340      -1.85692698       0.88807968
