21
Properties=species:S:1:pos:R:3 -1959.6308764566488=T 12.630363=T 13.75563=T -9.1427=T -6.9449=T -10.501=T 0.8489=T -0.0919=T 3.039=T 10.22798=T -2.76952=T 8.5375147782=T 11.4984740386=T 0.117518031=T pbc="F F F"
C        2.96491199      -0.84346893       1.40142556
C        2.61258060      -0.23898721       0.03408078
N        1.16250197      -0.19207498      -0.24206326
C        3.16428784       1.18283728      -0.14362704
C        4.68588583       1.35994516      -0.03926996
C        5.45061395       0.52943290      -1.08074520
N        4.97137413       2.80754886      -0.10357788
H        4.05147488      -0.95364494       1.54215944
H        2.51659891      -1.84249490       1.51039771
H        2.58232483      -0.20866811       2.21721758
H        3.04595215      -0.88386319      -0.75089696
H        0.70613473       0.39728821       0.46265514
H        0.76188471      -1.12681557      -0.12318423
H        2.70121978       1.84388268       0.61010322
H        2.82779187       1.54795738      -1.13002181
H        5.00857030       1.03568093       0.96601257
H        5.12924040       0.79441008      -2.10122279
H        5.29432749      -0.55258657      -0.94899528
H        6.53248297       0.71646481      -1.00663487
H        4.69054205       3.16392577      -1.02356640
H        5.98224863       2.95919036      -0.04438632
