17
Properties=species:S:1:pos:R:3 -1728.2962707393117=T 11.691441=T 12.85142=T -9.1982=T -7.0444=T -9.201=T 0.9745=T -0.2098=T 1.288=T 8.57817=T -0.63885=T 6.3035970232=T 0.398180922=T pbc="F F F"
C        2.52357581      -0.84367784      -1.41676480
C        2.38127217       0.13302010      -0.27783705
C        1.39571563       0.03936062       0.62848069
C        3.41599717       1.21228099      -0.24323912
C        3.25006839       2.49029477      -1.08159548
C        3.22885207       2.54323292       0.42434209
O        4.24691220       3.16445130       1.17874027
H        3.49341647      -1.36513073      -1.36462422
H        2.50099080      -0.32071011      -2.38620218
H        1.72695652      -1.59882370      -1.40735882
H        0.64405856      -0.74943168       0.56324128
H        1.31210979       0.73818935       1.46196359
H        4.44718160       0.83594036      -0.23897697
H        2.30629143       2.63498124      -1.61073169
H        4.13270262       2.87150195      -1.59835138
H        2.26517843       2.74457825       0.89388670
H        5.10793033       2.87055221       0.83315710
