13
Properties=species:S:1:pos:R:3 -1492.9682652382878=T 11.807269=T 11.27791=T -9.1837=T -7.2567=T -9.225=T -0.522=T -2.1228=T -1.097=T 8.67826=T 1.63708=T 3.4501088276=T 4.4521140852=T 0.621645045=T pbc="F F F"
C        1.00648896       0.02205832      -0.20443885
C        2.33397359      -0.00921560       0.02052608
C        3.22928956      -1.22339623       0.11580652
C        4.62724355      -0.64261581       0.39397079
O        5.65737847      -1.28477366       0.54976278
C        4.47509442       0.82863121       0.43461112
C        3.17684678       1.16482055       0.22247790
H        0.42618321      -0.89032717      -0.34684050
H        0.46792213       0.97035216      -0.25019393
H        3.25046116      -1.81122272      -0.81391177
H        2.94006524      -1.90726017       0.92724799
H        5.30998861       1.50413709       0.61307068
H        2.77690433       2.18028204       0.19985119
