16
Properties=species:S:1:pos:R:3 -1633.794227435446=T 11.660806=T 12.83145=T -9.4285=T -7.2616=T -9.897=T 0.9051=T -0.055=T 2.293=T 9.49104=T -1.88007=T 4.3590501936=T 10.6143050754=T 0.557209384=T pbc="F F F"
C        3.93685223       0.09365315      -2.95302367
C        3.79120657       0.04273937      -1.74857896
C        3.59890935      -0.01247913      -0.30291434
C        4.26454429       1.14405616       0.47404286
C        5.77472265       1.12274870       0.41488839
C        6.53800417       1.85420904      -0.63125295
N        6.45291971       2.39601031       0.74490636
H        4.06424371       0.13646632      -4.01525237
H        3.98027747      -0.97809765       0.07283976
H        2.51702458      -0.01104030      -0.09090638
H        3.94453377       1.07857771       1.52694310
H        3.90598479       2.11097039       0.09057768
H        6.23659917       0.19973646       0.78669397
H        5.99191819       2.42954326      -1.38199054
H        7.48146365       1.42324386      -0.97509219
H        7.32646571       2.20212236       1.24399927
