16
Properties=species:S:1:pos:R:3 -1566.8279864899341=T 9.902529=T 10.9429=T -9.4325=T -7.247=T -11.249=T 0.9923=T 0.0825=T 3.074=T 10.66141=T -2.84529=T 9.0863636044=T 11.371747948=T 0.149673817=T pbc="F F F"
C        2.02438812      -0.45938229      -1.26938166
O        2.23883220       0.09767229       0.02191526
C        3.03085144       1.26947116      -0.02626240
C        2.39949964       2.60248319      -0.52495042
C        3.14375519       3.31091366       0.64121506
C        3.28423446       1.92995580       1.34090400
H        1.41962303      -1.36497099      -1.13420240
H        2.98103224      -0.73208460      -1.75507822
H        1.48106178       0.23898482      -1.93225679
H        3.98114893       1.06286700      -0.56040653
H        1.31290662       2.58653445      -0.35271491
H        2.60459431       2.93231120      -1.55243375
H        4.11747450       3.70859451       0.32227748
H        2.60267187       4.09866904       1.18064604
H        4.22031441       1.69228631       1.86303715
H        2.43322125       1.72934446       2.00761208
