15
Properties=species:S:1:pos:R:3 -1562.468531921839=T 10.534413=T 11.34386=T -9.7503=T -7.5535=T -9.623=T 1.3481=T -0.5473=T -0.235=T 9.03673=T 0.78713=T 4.3728746326=T 6.4161763112=T 0.287966998=T pbc="F F F"
C        1.90610106      -0.90695937      -1.03310867
C        1.73197985       0.08374283       0.12845227
C        2.62358889       1.28497474       0.02744992
C        2.25375821       2.55748106      -0.12121938
O        4.02107737       1.00487102      -0.02157696
C        4.62050294       0.53800379       1.11062586
O        4.10303647       0.36815969       2.18963688
H        1.23100952      -1.76422521      -0.90609039
H        2.93368479      -1.29287285      -1.08114892
H        1.67908232      -0.43030948      -1.99729201
H        1.92924681      -0.42309066       1.08616806
H        0.69419989       0.44576704       0.16712954
H        1.19755575       2.81826909      -0.15997046
H        2.99232736       3.35350709      -0.20408691
H        5.68442876       0.34430123       0.87114119
