19
Properties=species:S:1:pos:R:3 -1804.8521247837946=T 12.166703=T 13.57206=T -8.864=T -6.8137=T -10.393=T 0.9493=T -0.0038=T 3.259=T 9.71725=T -2.92088=T 8.4724097296=T 11.8539171034=T 0.16973986=T pbc="F F F"
C        2.64473724      -0.95095221      -0.66917070
C        2.28942094       0.27946743       0.15759558
N        3.35802069       1.28267417       0.09738163
C        3.26452067       2.23985989      -1.01403628
C        2.95591110       2.65913533       0.38902778
C        3.90577569       3.50471880       1.20689059
N        3.57437283       4.92899726       1.04431992
H        1.85647334      -1.71260700      -0.58741543
H        3.59094227      -1.38941546      -0.32364655
H        2.75781727      -0.69264572      -1.73231703
H        2.16376862       0.00029312       1.21656356
H        1.31864790       0.69891914      -0.18497108
H        2.41953579       2.14130098      -1.70499403
H        4.21587785       2.51866032      -1.47661562
H        1.89343978       2.83198631       0.60597329
H        4.94194856       3.22840149       0.93023636
H        3.78044347       3.24986931       2.27243112
H        3.77884613       5.22280748       0.08541619
H        4.16753987       5.49737938       1.65205068
