17
Properties=species:S:1:pos:R:3 -1638.522062676825=T 10.528822=T 11.58687=T -8.7557=T -6.5893=T -10.213=T 0.958=T 0.0277=T 3.166=T 9.51354=T -2.87552=T 8.3780563836=T 10.3291868698=T 0.111340949=T pbc="F F F"
C        2.34089130      -0.53051455      -1.46072383
C        2.46765728       0.04336473      -0.04781125
C        3.23984010       1.35339143      -0.01012875
C        2.59938355       2.64112609      -0.59604681
C        3.17203491       3.36095598       0.64664689
N        3.29032800       2.03629599       1.31772509
H        1.78537851      -1.47873021      -1.45794877
H        3.32942012      -0.72485588      -1.90502537
H        1.80814883       0.16400491      -2.12819519
H        2.97409123      -0.68436420       0.60950274
H        1.47206412       0.21841525       0.39190687
H        4.24830049       1.20307012      -0.45065559
H        1.50127595       2.59046580      -0.57646788
H        2.93733426       2.97991498      -1.58241186
H        4.14159186       3.84466374       0.42478278
H        2.52526757       4.08159032       1.17039249
H        4.15751194       1.89467550       1.84173842
