15
Properties=species:S:1:pos:R:3 -1570.1888141839988=T 11.946421=T 12.30741=T -8.2464=T -6.3133=T -8.446=T 0.8849=T -0.6429=T 0.166=T 7.90237=T 0.41096=T 4.5158304906=T 0.264629893=T pbc="F F F"
C        0.94095755      -0.16090174      -0.01161654
C        2.43772181      -0.03688039      -0.00717420
N        3.09885669      -1.24342543      -0.11711632
C        3.11594776       1.15959910       0.03186364
C        2.50825734       2.54236197       0.01797314
C        4.53408667       1.08887827       0.06380014
N        5.70369502       0.98872909       0.09746164
H        0.43838645       0.79331131       0.16766435
H        0.61515888      -0.86441143       0.77107249
H        0.59432709      -0.56035842      -0.97715923
H        2.62308028      -2.06706752       0.23658136
H        4.10722264      -1.23706416       0.02822592
H        1.41340258       2.51023087       0.00474606
H        2.83346008       3.10781626      -0.86862173
H        2.81754916       3.11930222       0.90244928
