16
Properties=species:S:1:pos:R:3 -1562.8580885102695=T 10.066758=T 11.3056=T -9.6433=T -7.3936=T -11.403=T 1.0255=T 0.1169=T 3.205=T 10.88833=T -2.89344=T 9.2787898764=T 11.822871009=T 0.214813439=T pbc="F F F"
C        1.25908997      -0.18920777      -0.33767738
O        2.66872953      -0.03150745      -0.34385138
C        3.05782168       1.25379175       0.14163800
C        4.55696130       1.35383998       0.15861915
C        5.29978246       1.71788881      -1.10406367
C        5.20263014       2.71475387       0.02606137
H        1.04365062      -1.19792578      -0.71280453
H        0.76200805       0.55229274      -0.99337590
H        0.83991818      -0.08638268       0.68239467
H        2.64708984       1.40615225       1.16192605
H        2.63215612       2.04977732      -0.50620958
H        5.05043996       0.64340830       0.82607414
H        4.70449806       1.90141431      -1.99980986
H        6.26066037       1.23751122      -1.28827119
H        6.09418407       2.91652480       0.61995591
H        4.54760966       3.57711832      -0.11054580
