16
Properties=species:S:1:pos:R:3 -1575.1620840125374=T 9.863885=T 10.98548=T -9.6526=T -7.4311=T -11.002=T 0.9168=T -0.0569=T 2.902=T 10.67769=T -2.5555=T 8.6730190776=T 12.2905338024=T 0.129305288=T pbc="F F F"
C        3.06758889      -1.21524440      -0.46778364
C        2.36731337       0.01193393       0.12094647
C        3.26828879       1.23004219       0.21618337
O        4.41914597       1.05442834       1.03336210
C        3.51495495       2.07893723      -0.99563701
C        2.67519240       2.61828594       0.15449815
H        2.39436580      -2.08386703      -0.48727447
H        3.95413513      -1.47991171       0.12473410
H        3.40158538      -1.02125713      -1.49789122
H        1.98326033      -0.22225010       1.13075764
H        1.48511855       0.27464618      -0.48528935
H        4.11212668       1.01074300       1.95751772
H        3.01333484       1.80960302      -1.92604149
H        4.51887729       2.48766436      -1.10785101
H        3.13829462       3.38050973       0.78166872
H        1.59810700       2.72031645       0.01209992
