18
Properties=species:S:1:pos:R:3 -1770.7836946190214=T 11.019543=T 12.22161=T -10.3972=T -8.1057=T -11.591=T 1.0002=T 0.1329=T 3.024=T 11.32364=T -2.78417=T 9.8223197032=T 13.2474453518=T 0.109905258=T pbc="F F F"
C        0.94202441      -0.00920151       0.01287208
C        2.46088283       0.02326720       0.06201528
C        3.17780173       1.08531756       0.94139063
C        4.24399795       0.01461969       1.29173218
C        3.22933785      -1.07840891       0.85474651
C        3.72658743      -2.31723468       0.12785811
H        0.57510283      -0.87834867      -0.55501334
H        0.53639545       0.89475344      -0.46744075
H        0.51866559      -0.06738583       1.02823375
H        2.87171257       0.06720688      -0.96284110
H        2.56572018       1.34526708       1.81947795
H        3.51345875       2.01365453       0.45832137
H        5.09824204       0.05632986       0.59761469
H        4.62752795      -0.01899414       2.32110028
H        2.61758903      -1.37168840       1.72699433
H        4.33440504      -2.03984354      -0.74801426
H        2.89023049      -2.93976133      -0.22645051
H        4.35077786      -2.94417923       0.78335280
