14
Properties=species:S:1:pos:R:3 -1430.1602261129892=T 10.57609=T 10.97317=T -9.6591=T -7.4036=T -9.333=T 1.1669=T -0.5035=T 0.838=T 8.84128=T -0.3696=T 6.2837220674=T 0.708264781=T pbc="F F F"
O        1.06963311      -0.12541259       0.11791250
C        2.47260795       0.09742913      -0.09656101
C        2.86858974      -0.49457093      -1.42408620
C        2.02553475      -1.05591898      -2.29571643
C        2.78891011       1.57320806      -0.05022933
C        3.63202371       2.13328733       0.82473259
H        0.82867032       0.35858849       0.92609574
H        3.06391560      -0.41054135       0.69421553
H        3.93819757      -0.42787954      -1.64415738
H        0.95949179      -1.12799484      -2.07894315
H        2.38659107      -1.46170037      -3.24126734
H        2.26100688       2.18169221      -0.79215540
H        4.16359643       1.53047472       1.56608562
H        3.82733097       3.20658866       0.82687426
