18
Properties=species:S:1:pos:R:3 -1814.529191612079=T 12.040217=T 12.74112=T -8.6203=T -6.555=T -8.878=T 0.9024=T -0.0089=T 1.426=T 8.41646=T -0.78051=T 6.0197186776=T 12.2242508868=T 0.283559547=T pbc="F F F"
C        0.93379003       0.05317689      -0.01488726
C        2.47621321       0.02114070       0.00130483
C        3.01873348       0.10437308      -1.43133026
N        2.94812347      -1.23762387       0.66432461
C        3.41540172      -0.88589376       2.02791826
C        3.52546718       0.61919877       2.03071454
C        3.01159634       1.12249581       0.90368451
H        0.53831315      -0.08539536       1.00057640
H        0.54584825      -0.75706952      -0.64885233
H        0.56051810       1.01335262      -0.40242714
H        4.11786033       0.15366476      -1.43401605
H        2.63641043       0.99736814      -1.94634836
H        2.70253442      -0.77718233      -2.00985028
H        3.75377998      -1.57840328       0.13665949
H        4.36681376      -1.39232296       2.26034669
H        2.69044943      -1.22372299       2.79414074
H        3.91892935       1.19420875       2.87029866
H        2.91472737       2.18213457       0.66089295
