22
Properties=species:S:1:pos:R:3 -2078.7453976819547=T 13.326892=T 15.34779=T -8.6196=T -6.4497=T -10.057=T 0.9738=T 0.0478=T 3.114=T 9.33805=T -2.87278=T 8.1744093786=T 11.18291727=T 0.318460631=T pbc="F F F"
C        2.21443562      -1.84388986       0.11124288
C        3.48667946      -1.00728879       0.25847077
C        3.32136437       0.43464098      -0.23059809
C        4.58704853       1.28112078      -0.07328516
C        4.41939830       2.71537371      -0.57086664
N        5.62280168       3.51273065      -0.33355565
C        5.51492317       4.86984062      -0.86171189
H        2.36359521      -2.87253624       0.46979628
H        1.89454275      -1.89990047      -0.94078146
H        1.38327875      -1.40724544       0.68632429
H        4.31069622      -1.48632684      -0.29845019
H        3.80132406      -0.99613505       1.31636712
H        2.49294697       0.91171946       0.32370080
H        3.01163523       0.42456930      -1.29123559
H        5.41672115       0.80065912      -0.62426642
H        4.89291549       1.30999045       0.98579225
H        3.58759291       3.19771288      -0.02638572
H        4.12010761       2.70313007      -1.64487020
H        6.41978579       3.04412927      -0.77280805
H        4.74445615       5.42011091      -0.29900924
H        5.24153950       4.92137159      -1.93797234
H        6.46798107       5.39875290      -0.72124773
