18
Properties=species:S:1:pos:R:3 -1796.5620714079785=T 12.292909=T 13.21605=T -9.0254=T -6.7959=T -9.397=T 0.9426=T -0.0224=T 1.355=T 8.88441=T -0.76293=T 6.5790567194=T 0.414485621=T pbc="F F F"
N        0.75953843      -0.06920677       0.36887175
C        2.19039605      -0.02812713       0.06061914
C        3.00635176       1.08626663       0.76336468
C        4.12109634       0.04524608       1.06856653
C        3.06784046      -1.08115668       0.78197397
C        5.31019735       0.00100867       0.15587785
C        5.67284617       0.90897054      -0.75850175
H        0.34535040      -0.91192536      -0.04147764
H        0.28812939       0.71926686      -0.08463103
H        2.41870662      -0.03196433      -1.02257332
H        2.49680481       1.39597451       1.68698838
H        3.26963061       1.97904288       0.18001933
H        4.48298206       0.04910299       2.10985244
H        3.40610647      -1.95095041       0.20103711
H        2.57735759      -1.41767701       1.70675630
H        5.93677040      -0.89196819       0.28013429
H        5.09832223       1.82150227      -0.93184971
H        6.56672287       0.76874446      -1.36742832
