15
Properties=species:S:1:pos:R:3 -1499.5322159172413=T 11.0046=T 11.46636=T -9.0851=T -7.1561=T -9.624=T 0.7526=T -0.3128=T 0.659=T 9.16124=T -0.15499=T 5.028562195=T 6.2787874246=T 0.319679812=T pbc="F F F"
N        1.92020209      -1.06377154       0.84517548
C        2.60017258      -0.46952409      -0.19696136
N        2.76058505      -0.88889814      -1.40269711
C        3.23234742       0.88755668       0.16957789
O        2.56923457       1.53210489       1.26267769
C        4.68222291       0.67162047       0.52231249
C        5.26110191       1.08407289       1.65336035
H        2.08147035      -0.67485424       1.77198124
H        1.74180983      -2.06169981       0.79530436
H        2.35403215      -1.82501656      -1.53842044
H        3.18216413       1.50182338      -0.74741820
H        1.70199042       1.83166828       0.94168568
H        5.24353633       0.12734820      -0.24116747
H        4.69831993       1.63142092       2.41012724
H        6.31736034       0.88969868       1.84161215
