19
Properties=species:S:1:pos:R:3 -1945.0163080235761=T 12.4708=T 13.39157=T -8.9312=T -6.8465=T -8.91=T 0.9846=T 0.0132=T 1.467=T 8.3956=T -0.81347=T 6.1154730654=T 0.307207267=T pbc="F F F"
C        1.01606824       0.01305847       0.07372172
C        2.54221537      -0.04635447      -0.04353172
C        2.99726498      -1.28431676      -0.87199234
C        3.37905969      -0.70401589      -2.20927398
C        3.42365103       0.63494300      -2.18011135
C        3.10837037       1.19356127      -0.81150907
C        4.34576903       1.81891146      -0.14490276
H        0.69213911       0.91029698       0.62275835
H        0.62188800      -0.86679657       0.60432154
H        0.55074771       0.04180184      -0.92436204
H        2.97213018      -0.08292635       0.97037556
H        2.19338832      -2.03617774      -0.95171203
H        3.85567881      -1.80527609      -0.41162356
H        3.61042540      -1.31978663      -3.08076223
H        3.69857986       1.27113370      -3.02435288
H        2.33021059       1.97633180      -0.88020010
H        5.14140417       1.06919495      -0.01755934
H        4.09496169       2.22622369       0.84624248
H        4.75485746       2.64028336      -0.75224626
