14
Properties=species:S:1:pos:R:3 -1396.545321520146=T 10.594032=T 11.20733=T -9.3338=T -7.2639=T -10.574=T 0.9579=T -1.1004=T -0.353=T 10.3864=T 0.98331=T 3.6486848052=T 12.1234502688=T 0.226500241=T pbc="F F F"
C        4.33837831       2.77343562      -2.45208741
O        4.27820807       3.54371976      -1.24446545
N        3.98551103       2.68160060      -0.17324580
C        3.87156654       3.33019174       0.92845698
C        3.58129587       2.56939652       2.17985169
C        2.38467423       3.07262684       2.96347183
O        1.68373029       4.01287292       2.64540250
H        4.61573757       3.48872422      -3.23561911
H        3.35991630       2.32557555      -2.68313439
H        5.10019137       1.98310409      -2.37713121
H        3.97634067       4.42173499       0.96805065
H        4.44194395       2.60278601       2.87683457
H        3.42908638       1.50024525       1.95510107
H        2.18564942       2.49887589       3.90601407
