14
Properties=species:S:1:pos:R:3 -1379.4990772301223=T 8.695466=T 9.64993=T -9.6786=T -7.4596=T -11.496=T 0.9776=T -0.0637=T 2.673=T 10.96768=T -2.43587=T 9.0181713044=T 10.5406945872=T 0.089794023=T pbc="F F F"
C        0.98686431       0.04802286       0.09041050
C        2.48975922      -0.06315672       0.00346242
O        3.19671247       0.96997723       0.76741420
C        4.15564970      -0.01074606       1.25385292
C        3.24353402      -1.16370700       0.79090208
O        3.78520177      -2.28031167       0.11568042
H        0.51818095      -0.78633836      -0.45202606
H        0.63791749       0.98751252      -0.36107701
H        0.65498499       0.02188243       1.13798329
H        2.82453371      -0.04495595      -1.05545391
H        5.10873519       0.03070173       0.69040701
H        4.35933873       0.10397874       2.32899299
H        2.63238656      -1.57244323       1.60845255
H        4.34757089      -1.94866654      -0.60862141
