17
Properties=species:S:1:pos:R:3 -1630.228752867371=T 10.665672=T 11.78445=T -8.9249=T -6.8526=T -10.52=T 0.9989=T 0.0949=T 3.405=T 9.81863=T -3.33792=T 8.7025897386=T 12.2693817908=T 0.202618556=T pbc="F F F"
C        1.04059592      -0.31379167      -0.05301403
C        2.56041905      -0.26417882      -0.21579888
C        3.17675426       0.97930073       0.42306522
N        4.62860150       1.01727416       0.23054090
C        5.36778213       1.84141371       1.19076290
C        5.41520088       0.35155108       1.27556693
H        0.61914230      -1.21391384      -0.52187769
H        0.55939128       0.55983466      -0.51893420
H        0.75035622      -0.32503501       1.00889623
H        2.83250687      -0.28038880      -1.28302222
H        3.01544281      -1.16205830       0.23486514
H        2.90588742       1.01788919       1.50263551
H        2.75667653       1.88588686      -0.04556566
H        4.79298282       2.36098473       1.96538578
H        6.21291217       2.40115000       0.78420728
H        6.29619193      -0.19581339       0.93364053
H        4.86989592      -0.11221529       2.10543626
