19
Properties=species:S:1:pos:R:3 -1824.3279783585363=T 12.287293=T 13.12409=T -8.0784=T -6.2594=T -9.22=T 0.8308=T -0.0997=T 1.142=T 8.31598=T -0.4883=T 4.796770368=T 8.3264906062=T 0.19241702=T pbc="F F F"
C        2.04297401      -0.76604953       0.91597900
C        2.25771204       0.20998977      -0.25113499
C        3.24647660       1.32338431       0.06919366
N        2.90430435       2.55058125       0.31124578
N        4.58365035       0.96361393       0.18335110
C        5.13922583      -0.17643889      -0.53191121
C        5.54101934       2.02644010       0.47058578
H        1.28005274      -1.51531316       0.66159171
H        1.70550723      -0.22626367       1.81204238
H        2.96683818      -1.29863840       1.18168736
H        1.30274875       0.69211605      -0.50461421
H        2.56543292      -0.34006328      -1.15474430
H        1.88317209       2.63233546       0.27162543
H        4.46577744      -1.03976433      -0.49798597
H        6.08079226      -0.47347965      -0.04799851
H        5.36227328       0.05402463      -1.59237196
H        5.08800156       2.73319398       1.17333437
H        5.82078030       2.58985874      -0.43881248
H        6.44654072       1.58136266       0.90619707
