15
Properties=species:S:1:pos:R:3 -1542.9731651751001=T 10.730923=T 11.33774=T -9.8735=T -7.85=T -9.932=T 0.2502=T -1.4708=T 0.138=T 9.60259=T 0.42115=T 4.9222937944=T 12.2924803826=T 0.320775129=T pbc="F F F"
C        3.12318703      -1.25315371      -0.56748420
C        2.44675727      -0.05905703       0.10692940
C        3.29876809       1.23115453       0.07395450
C        2.70037241       2.41959301       0.76221034
N        2.59517073       3.45905164       0.00201163
N        3.11525023       3.10415213      -1.31151095
C        3.50006346       1.87070986      -1.26664976
H        2.49309468      -2.14965657      -0.48687949
H        4.09137730      -1.48217676      -0.09756305
H        3.30237442      -1.07204624      -1.63663668
H        2.23436208      -0.30045479       1.16005106
H        1.47629999       0.14969042      -0.36943701
H        4.28740508       1.00857198       0.52330507
H        2.37134345       2.45363527       1.80297222
H        3.93432379       1.39564626      -2.14810309
