13
Properties=species:S:1:pos:R:3 -1262.907093545699=T 10.350512=T 11.32775=T -9.9584=T -8.0463=T -10.674=T -0.3405=T -2.3887=T -1.899=T 10.34678=T 2.67384=T 3.5485041172=T 11.3009891378=T 0.101194285=T pbc="F F F"
C        1.06614763      -0.27526003       0.03234256
C        2.53462599       0.12304419      -0.08339308
S        2.70040441       1.91604991       0.09383781
O        2.06866765       2.59133362      -1.05694444
O        2.37603495       2.31296956       1.47826187
C        4.53744070       2.20218338      -0.09679314
O        5.33741057       1.32735953      -0.29556711
H        0.97899610      -1.36387167      -0.07730323
H        0.46431661       0.19922497      -0.75308116
H        0.65507764       0.00603793       1.01020726
H        2.96688934      -0.11905674      -1.06381842
H        3.15917035      -0.31198460       0.70864904
H        4.76633807       3.28952997       0.00174203
