17
Properties=species:S:1:pos:R:3 -1636.6028599684803=T 11.452368=T 12.39054=T -8.6896=T -6.6025=T -9.601=T 1.3859=T 0.0328=T 1.348=T 9.09442=T -0.79319=T 6.7291665696=T 0.428557065=T pbc="F F F"
C        1.75452999      -1.35272958       0.51120106
C        3.25278116      -1.09097505       0.61068091
N        3.64386418       0.05807836      -0.20856097
C        5.06432687       0.39605342      -0.08043977
C        5.41685246       1.57363669      -0.94110387
C        5.99697918       2.69255649      -0.49319040
H        1.47338732      -2.23806565       1.09838602
H        1.45748692      -1.51575424      -0.53421224
H        1.17645344      -0.49980246       0.90009709
H        3.80987203      -1.96843485       0.23906609
H        3.54116323      -0.96880136       1.67908904
H        3.08918905       0.87328359       0.07079362
H        5.63906439      -0.48536406      -0.42154633
H        5.37973656       0.59081387       0.96886273
H        5.15576258       1.47704900      -2.00047469
H        6.25473429       2.81443482       0.56245022
H        6.24110635       3.51858100      -1.16276852
