15
Properties=species:S:1:pos:R:3 -1661.2751624362518=T 12.445023=T 12.42393=T -8.1603=T -6.2344=T -8.143=T 0.6742=T -0.8763=T 0.391=T 7.63673=T 0.14861=T 4.8064288774=T 0.529040924=T pbc="F F F"
C        0.97451055      -0.02813507       0.02453433
C        2.30934048       0.14816023      -0.04682433
C        3.05017480       1.37911693       0.25405838
C        4.36718119       1.23102743      -0.02100802
C        4.67060209      -0.15257012      -0.48610538
C        4.40128298      -1.23974437       0.53907271
C        3.32544638      -0.87088333      -0.47040682
H        0.50985864      -0.97832549      -0.24156720
H        0.31653265       0.77713054       0.35439107
H        2.58322799       2.27222594       0.67029799
H        5.13296775       1.99532009       0.11588083
H        5.41617115      -0.33211116      -1.26214676
H        4.88972769      -2.20464125       0.39470088
H        4.26395753      -0.93214340       1.57704546
H        3.06650813      -1.60993698      -1.22860313
