14
Properties=species:S:1:pos:R:3 -1450.3619784015416=T 10.417263=T 10.74908=T -9.2623=T -7.181=T -9.304=T 1.0852=T -0.6354=T 0.456=T 8.80918=T 0.16286=T 5.3754378272=T 6.9511139082=T 0.467555996=T pbc="F F F"
C        1.01750826       1.17225773      -0.10069306
O       -0.22804811       1.22148716       0.59982325
N       -1.30028403       0.81122100      -0.29844799
C       -1.40338419      -0.46596613      -0.32546437
C       -0.52434080      -1.45970715       0.38920622
C        0.93244434      -1.35568530      -0.01852365
C        1.58929716      -0.21127888      -0.24866650
H        1.70114743       1.79641198       0.49878222
H        0.91180289       1.66409972      -1.08859684
H       -2.22104569      -0.82393869      -0.96329793
H       -0.89388178      -2.47472572       0.19097999
H       -0.62304804      -1.28699822       1.47582449
H        1.46707680      -2.30177495      -0.13199097
H        2.63898576      -0.25495254      -0.55737487
