19
Properties=species:S:1:pos:R:3 -1827.74808925105=T 11.844115=T 12.91564=T -8.5981=T -6.4872=T -10.043=T 0.8807=T -0.0797=T 3.214=T 9.2994=T -2.91224=T 8.1683712604=T 11.4988583952=T 0.124634701=T pbc="F F F"
N        2.12421203      -0.31475742      -1.40695672
C        2.30798119       0.12577927      -0.01605565
C        3.11905091       1.42021335       0.03457811
C        2.43682607       2.63970257      -0.63492729
C        2.72203604       3.83440578       0.31378679
C        3.73089096       3.27143988       1.32560871
N        3.32056110       1.86558084       1.42378254
H        1.53054089      -1.14616853      -1.43361146
H        3.02540387      -0.59655767      -1.80337559
H        2.79904495      -0.62709253       0.63655896
H        1.31672119       0.32805695       0.42070502
H        4.09348882       1.23827792      -0.47870966
H        1.35813522       2.45769008      -0.74492974
H        2.83579355       2.80400413      -1.64426964
H        3.11451258       4.71495783      -0.21390180
H        1.80335890       4.13853642       0.83571100
H        4.76461895       3.39296791       0.93324078
H        3.68073801       3.76341198       2.30827092
H        4.02172477       1.29662124       1.90288473
