11
Properties=species:S:1:pos:R:3 -1179.723149884491=T 8.681798=T 9.26565=T -10.6647=T -8.322=T -10.235=T 0.7412=T -0.9148=T 0.828=T 9.70877=T -0.26722=T 5.3795789596=T 6.8018347642=T 0.398013345=T pbc="F F F"
O        1.04134069      -0.16535130       0.27692412
C        2.42564508       0.08406567      -0.00431947
C        2.76831032      -0.62346965      -1.29252004
C        3.34569004      -0.06128300      -2.35556666
C        2.71464596       1.53129432      -0.04913691
N        2.92898069       2.67759521      -0.04438401
H        0.84110186       0.19780926       1.15879980
H        3.05976242      -0.33911058       0.80145517
H        2.50507921      -1.68418116      -1.28086265
H        3.60617770       0.99893812      -2.37647191
H        3.57808602      -0.65272689      -3.24109744
