16
Properties=species:S:1:pos:R:3 -1641.7311906115253=T 10.676068=T 11.55798=T -9.239=T -7.2544=T -10.509=T 0.7912=T -0.1049=T 0.714=T 9.57788=T 0.00447=T 4.4148810894=T 6.4762351296=T 0.124054261=T pbc="F F F"
C        0.93804222      -0.02738855       0.21008827
C        2.43722709       0.03745146      -0.07197408
C        2.75248685       0.04276125      -1.56578798
C        3.22959778       1.08738426       0.78052512
N        3.90791689      -0.04216026       1.43360576
C        3.25580948      -1.02873150       0.72602689
O        3.31730583      -2.24314146       0.74352189
H        0.72957855      -0.02094194       1.28961107
H        0.51478799      -0.95167873      -0.20852429
H        0.41569162       0.82598669      -0.24875994
H        3.83494817       0.09922681      -1.74999551
H        2.27111262       0.89782022      -2.06462051
H        2.37927453      -0.87934890      -2.03387855
H        2.61045467       1.69135210       1.46116201
H        3.90238068       1.73882296       0.20196138
H        4.61637501      -0.08841441       2.16467847
