11
Properties=species:S:1:pos:R:3 -1135.1508847982789=T 9.846015=T 9.92158=T -9.1591=T -7.1199=T -9.691=T 0.4735=T -1.2537=T -0.217=T 9.16929=T 0.75396=T 3.9322531858=T 11.355195817=T 0.520257204=T pbc="F F F"
C        0.98908172       0.00221222      -0.00575292
C        2.49477091      -0.04308274      -0.00035206
N        3.19747593      -1.13876439       0.00120291
O        2.34786484      -2.26390103      -0.00352232
C        3.23492008       1.17281564       0.00324516
C        3.78558597       2.25746073       0.00171708
H        0.63151193       1.03628714      -0.00207564
H        0.59343767      -0.52711979       0.87299390
H        0.60006818      -0.51812675      -0.89284441
H        2.99325536      -2.99332386      -0.00166807
H        4.29677741       3.19826283       0.00223637
