19
Properties=species:S:1:pos:R:3 -1865.3167024453053=T 12.866665=T 14.40763=T -9.3486=T -7.1544=T -9.161=T 1.181=T -0.0062=T 1.413=T 8.60285=T -0.78055=T 6.3805179376=T 0.421118123=T pbc="F F F"
C        2.20902393      -0.81042347      -1.46206748
C        2.74400270      -0.31001236      -0.11159670
C        3.06589684       1.15523521      -0.11956204
C        4.27105208       1.68895358       0.11717505
C        4.56540469       3.15338396       0.05889812
O        5.11463681       3.57797545       1.31080850
C        5.48549988       4.94778798       1.27727945
H        1.93819555      -1.87455679      -1.41026429
H        2.96258272      -0.68670856      -2.25329585
H        1.31160105      -0.25040984      -1.76551583
H        3.63910926      -0.88350669       0.17737629
H        1.98232629      -0.50239276       0.66512756
H        2.23157682       1.82959790      -0.35656442
H        5.11909473       1.03978980       0.36387617
H        3.64481559       3.72634278      -0.17405583
H        5.30008256       3.36609393      -0.74795745
H        5.91213369       5.19140878       2.25847804
H        4.61206975       5.60234834       1.09084691
H        6.24249509       5.14588276       0.49388381
