19
Properties=species:S:1:pos:R:3 -1824.3929041027407=T 12.915894=T 13.79106=T -8.2976=T -6.351=T -9.173=T 0.8908=T -0.0154=T 1.074=T 8.47432=T -0.45998=T 4.8049162482=T 5.8041814152=T 0.241813633=T pbc="F F F"
C        2.45664253      -0.56359022       1.56750604
C        2.52488409      -0.33204127       0.05783652
C        3.12392066       1.02855955      -0.32491864
N        4.52466537       1.12508615       0.04941757
C        4.87778360       2.12890402       0.76231551
N        6.18889802       2.39341924       1.08734325
C        6.53421395       3.19468162       2.24990169
H        2.02484574      -1.54661704       1.80392024
H        1.83478668       0.20154366       2.05974825
H        3.46000938      -0.51977850       2.01573115
H        1.51516227      -0.39977910      -0.38055759
H        3.13190792      -1.12121774      -0.41483970
H        2.51312286       1.84206439       0.12644129
H        3.04874203       1.14539809      -1.42101837
H        4.16930391       2.89499531       1.13788573
H        6.82748687       1.63848860       0.84078229
H        5.83912398       4.04251883       2.32272921
H        7.54577418       3.60516587       2.13183146
H        6.49045597       2.63489856       3.20196411
