13
Properties=species:S:1:pos:R:3 -1458.2212847044925=T 14.329546=T 13.71429=T -8.1171=T -6.2876=T -7.855=T 0.0538=T -1.3803=T -0.346=T 7.27852=T 0.96402=T 3.8196862964=T 0.40819783=T pbc="F F F"
C        2.70815583      -1.26949937       0.41132359
C        2.25859193      -0.02289160       0.17431909
C        3.03611062       1.19938031       0.11764829
C        2.55833599       2.47982670      -0.11451474
C        3.56799101       3.47827669      -0.10885399
C        4.82011449       2.96056816       0.12711291
S        4.77466547       1.24325199       0.34513892
H        2.02339139      -2.11616630       0.42918995
H        3.76366079      -1.48168612       0.59372674
H        1.18768152       0.12594772      -0.00010067
H        1.50072348       2.68285782      -0.28324520
H        3.38018068       4.53845494      -0.27264528
H        5.77126679       3.48219905       0.18641039
