19
Properties=species:S:1:pos:R:3 -1819.9649353217856=T 11.282224=T 12.61091=T -9.797=T -7.6432=T -11.614=T 0.9001=T -0.0391=T 3.005=T 10.88142=T -2.74415=T 9.2348368394=T 10.766758261=T 0.084921844=T pbc="F F F"
C        1.27035074      -0.52986094       1.75605327
C        1.78292495      -0.89808219       0.37038497
C        2.41808830      -2.28829406       0.33712974
O        0.65257615      -0.80491331      -0.51959008
C        0.98661465      -0.76956380      -1.90812849
C       -0.25806900      -0.31254755      -2.65014317
O       -0.68136029       0.98482440      -2.23458787
H        0.83197080       0.47720478       1.75236600
H        2.09006414      -0.54966819       2.48713188
H        0.49895956      -1.24385642       2.07999286
H        2.53460162      -0.14853675       0.04744352
H        1.68046097      -3.05034558       0.62975109
H        3.26417037      -2.33679224       1.03775253
H        2.80116583      -2.53993783      -0.66149574
H        1.29945036      -1.76473143      -2.27887676
H        1.81308532      -0.05201601      -2.07926683
H       -1.06259894      -1.05837040      -2.50394641
H       -0.04184239      -0.24954282      -3.72684136
H       -0.70880314       0.94673034      -1.25974914
