22
Properties=species:S:1:pos:R:3 -2072.664649870801=T 13.075979=T 14.4=T -7.9049=T -5.998=T -9.395=T 0.9376=T 0.0319=T 3.378=T 8.55206=T -3.15574=T 7.366504204=T 12.8177470716=T 0.126359222=T pbc="F F F"
C        2.72350261      -1.17031564      -0.45278605
C        2.51485981      -0.24967066       0.75078061
N        3.17243630       1.05478811       0.60587657
C        2.54156252       2.09746112       1.42881121
C        2.64869066       1.95553352       2.95659762
C        4.62813073       0.96259044       0.76741471
C        5.37148636       2.23280469       0.35807743
H        2.12913249      -2.08776644      -0.33095447
H        3.77266759      -1.47699753      -0.56952254
H        2.40893296      -0.66905901      -1.37939195
H        2.83070608      -0.78099802       1.67690683
H        1.43518704      -0.05628815       0.85857378
H        1.47764154       2.12587974       1.14155261
H        2.96036140       3.06944782       1.12494164
H        2.20610269       1.01398175       3.31290912
H        2.11109950       2.78106571       3.44587103
H        3.69190307       1.99127546       3.30282392
H        4.97337653       0.13962215       0.12427786
H        4.91660052       0.67974263       1.80571333
H        5.08520133       2.53737009      -0.65911221
H        6.45577869       2.05231664       0.37375584
H        5.17167958       3.07404559       1.03701311
