13
Properties=species:S:1:pos:R:3 -1278.1225010456274=T 8.640679=T 9.02872=T -9.6596=T -7.4341=T -9.467=T 1.2323=T -0.1905=T 1.223=T 8.88647=T -0.63269=T 6.47578878=T 0.409718891=T pbc="F F F"
C        0.93833091      -0.00754687       0.03763640
C        2.44088528      -0.07015892       0.01689649
C        3.13109226      -1.21848812       0.10065800
C        3.16369891       1.25171394      -0.09699421
O        2.88875416       2.13209930       1.00836079
H        0.58930579       0.68513673       0.81777885
H        0.49150025      -0.99459311       0.21241454
H        0.55587589       0.38270499      -0.92003837
H        2.62942684      -2.18501863       0.18337565
H        4.22326700      -1.22589906       0.07756849
H        2.81571879       1.80254333      -0.98589380
H        4.24939367       1.08133784      -0.20798779
H        3.18586025       1.67290859       1.81470496
