16
Properties=species:S:1:pos:R:3 -1698.3065131255362=T 11.979147=T 12.41908=T -7.894=T -6.0044=T -7.953=T 0.8777=T -0.0302=T 1.137=T 7.45237=T -0.54718=T 4.8328998884=T 6.2366693804=T 0.490685254=T pbc="F F F"
C        2.33084818      -0.49723243      -1.42059638
C        2.49394610       0.03339478       0.00447854
N        3.01371203       1.39613702       0.05918756
C        2.25199882       2.54514849      -0.00322353
C        3.10934135       3.63233990      -0.03496495
C        4.43862173       3.12387531       0.00109733
C        4.34940177       1.74282736       0.05380980
H        1.93760389      -1.52381807      -1.40069303
H        3.29441394      -0.50672103      -1.94821210
H        1.63393131       0.12851700      -1.99475129
H        3.17850657      -0.60820073       0.57895681
H        1.52900765       0.02288145       0.53273253
H        1.16755889       2.49093228      -0.00929548
H        2.80967339       4.67575535      -0.06608553
H        5.35882273       3.70067598       0.00316931
H        5.11989166       0.97905734       0.09828041
