14
Properties=species:S:1:pos:R:3 -1346.4627907158374=T 10.265913=T 11.47191=T -10.2018=T -8.2571=T -10.558=T 0.5999=T -0.4153=T 0.059=T 9.93156=T 0.35592=T 5.4811606894=T 11.8720810524=T 0.330308633=T pbc="F F F"
O        1.10735212      -0.33127759       0.77397970
S        2.29830812      -0.08591794      -0.04068114
O        2.21340074       0.08530376      -1.49499483
C        3.25464157       1.27009410       0.77115664
C        4.53353231       0.60355310       1.28530029
C        4.21234323      -0.90133677       1.44748888
N        3.43410782      -1.33991884       0.27574498
H        2.60707928       1.64721944       1.57099042
H        3.41803230       2.04599423       0.01563809
H        5.34324292       0.72482100       0.54973647
H        4.87028687       1.05064620       2.23145851
H        5.11786003      -1.51595578       1.52593830
H        3.60366951      -1.07882688       2.34700125
H        4.02257318      -1.39476801      -0.56374757
