15
Properties=species:S:1:pos:R:3 -1466.3154555470928=T 12.291424=T 11.73982=T -8.0773=T -6.1934=T -8.496=T 0.7144=T -0.8273=T -0.06=T 7.93686=T 0.71595=T 4.2710201336=T 4.6896960584=T 0.489389862=T pbc="F F F"
C        0.78776086      -0.25666816      -0.24682552
C        2.27129757      -0.25647019       0.02821525
C        3.00307363      -1.39050451      -0.00506730
N        2.92276347       0.94619186       0.33221201
C        2.28807852       2.07182282       0.40628175
N        3.02613035       3.21213804       0.60114797
O        4.37575802       2.98271994       0.93647248
H        0.53790647       0.39411667      -1.10005567
H        0.21620273       0.10635041       0.62279419
H        0.43884241      -1.26949646      -0.47969338
H        2.54137301      -2.35091196      -0.22935907
H        4.07370787      -1.36186909       0.19552610
H        1.21137469       2.25036684       0.28278389
H        2.63438922       3.93006284       1.21241104
H        4.40358118       1.98551096       0.83738627
