14
Properties=species:S:1:pos:R:3 -1515.4486244948139=T 12.287277=T 12.57893=T -8.7865=T -6.7135=T -8.403=T 0.6908=T -0.9063=T 0.556=T 7.93883=T 0.02384=T 4.049320767=T 11.1457586658=T 0.368545283=T pbc="F F F"
C        0.95890838       0.07328953       0.00481846
C        2.17280391      -0.03007364      -0.02246275
C        3.58354611      -0.06361929      -0.05611679
C        4.39096981      -1.14417171      -0.11222951
C        5.83616546      -0.71785855      -0.04972061
N        5.82119489       0.75172145      -0.24553292
C        4.44546811       1.19662125       0.05520964
H       -0.10920714       0.13949995       0.03248004
H        4.05578287      -2.18077915      -0.13199383
H        6.26549549      -0.97322956       0.93959063
H        6.47494923      -1.20678483      -0.80185929
H        5.99172129       0.92885630      -1.23721951
H        4.12688208       1.99822753      -0.62652370
H        4.37489951       1.59520073       1.08424013
