17
Properties=species:S:1:pos:R:3 -1750.1836521368475=T 11.358875=T 12.22127=T -8.2215=T -6.1456=T -8.876=T 0.9409=T 0.0496=T 1.298=T 8.44179=T -0.72614=T 5.8572102274=T 0.2347616=T pbc="F F F"
C        1.00584622       0.02578646       0.06857095
C        2.50925147      -0.04038631      -0.13990720
O        2.80763564      -1.20027493      -1.00371633
C        3.28293069      -0.68934288      -2.18307799
C        3.45540161       0.63890318      -2.21043231
C        3.11241075       1.20786532      -0.85175333
C        4.32543480       1.80397304      -0.12136404
H        0.75739225       0.84134948       0.76395135
H        0.62715666      -0.91577038       0.48859249
H        0.49458649       0.21471281      -0.88664840
H        3.02330817      -0.24053545       0.81389358
H        3.46697252      -1.43610009      -2.95420652
H        3.82604162       1.21420194      -3.05461334
H        2.33428449       1.98875023      -0.93088042
H        5.11743702       1.04917128      -0.00721544
H        4.04620059       2.16922782       0.87922377
H        4.74550902       2.65115847      -0.68288682
