13
Properties=species:S:1:pos:R:3 -1388.2495299790548=T 10.424896=T 10.82476=T -9.6294=T -7.5994=T -9.377=T 0.3675=T -1.3135=T -0.025=T 8.82821=T 0.58719=T 4.9629488038=T 5.1077396546=T 0.285163438=T pbc="F F F"
C        0.90249902       0.07396206      -0.13354882
C        2.39586970      -0.00056464      -0.01675437
C        3.00373975      -1.37038388      -0.03180024
C        3.13578362       1.12879659       0.09644794
C        4.55252198       1.13694251       0.21168297
N        5.71928742       1.17328520       0.30785029
H        0.53423281       1.10718883      -0.12062088
H        0.42399658      -0.47870335       0.69094396
H        0.56476435      -0.40663943      -1.06571939
H        2.59868873      -1.97611428       0.79456098
H        4.09625298      -1.34424380       0.05432133
H        2.73650352      -1.89564102      -0.96258435
H        2.65355954       2.10913522       0.10334057
