14
Properties=species:S:1:pos:R:3 -1478.120298811013=T 11.986384=T 13.19506=T -9.4136=T -7.1822=T -9.527=T 0.8305=T -0.1779=T 1.846=T 9.20917=T -1.56258=T 4.327607344=T 10.8767586402=T 0.459477769=T pbc="F F F"
N        1.01137272      -0.05915442      -0.31165244
C        2.44770695      -0.03224778      -0.05451002
C        2.97363548       1.44072087      -0.00184238
C        2.41133722       2.18406920       1.12974533
C        1.94888410       2.78731430       2.07419506
C        4.44020359       1.46287222       0.01072177
C        5.65268990       1.43427339       0.00180531
H        0.58766258      -0.90090046       0.07697142
H        0.81579580      -0.05684852      -1.31395093
H        3.06160819      -0.56432994      -0.80369310
H        2.64951323      -0.49345707       0.92208558
H        2.63480826       1.93422714      -0.93310030
H        1.53996295       3.31967642       2.90818271
H        6.72343903       1.42451466       0.00380199
