16
Properties=species:S:1:pos:R:3 -1580.2072447753524=T 12.4328=T 13.05185=T -9.0438=T -7.0439=T -9.584=T 1.5934=T -0.1623=T 0.519=T 9.04903=T 0.1081=T 5.4448575886=T 6.4015955576=T 0.505549537=T pbc="F F F"
C        3.82821416       5.55680044       1.65647204
C        4.32374909       4.67439262       0.56024136
N        5.41943714       4.02311681       0.71136086
O        5.72459371       3.26781352      -0.44569739
C        6.89794076       2.46802972      -0.18134514
C        7.45742531       2.02043535      -1.49342667
C        7.70165073       0.74370284      -1.80582195
H        3.73831562       6.59745323       1.30703557
H        4.51041491       5.52743927       2.51483237
H        2.82482075       5.24377441       1.98511179
H        3.74873472       4.59001529      -0.37334193
H        6.63349070       1.60694104       0.45670891
H        7.62589784       3.09402685       0.36254382
H        7.69214376       2.81703352      -2.20668881
H        7.46555356      -0.06784861      -1.11280870
H        8.15424725       0.46616372      -2.75876614
