14
Properties=species:S:1:pos:R:3 -1443.7877200123426=T 9.40661=T 10.36497=T -9.7196=T -7.6131=T -11.119=T 0.6173=T -0.432=T 0.252=T 10.14661=T 0.36882=T 4.319424268=T 12.7891559=T 0.169125818=T pbc="F F F"
O        2.34302114      -1.09315146      -1.07860994
C        2.12944834       0.17457347      -0.65218443
O        1.31298507       0.90222181      -1.17813591
C        2.95138212       0.58361775       0.57989461
C        4.41805056       0.19454311       0.52564850
C        5.04535111      -0.64562553       1.58122466
N        4.67401206      -1.25440402       0.28571187
H        3.10829733      -1.46796806      -0.55096811
H        2.47251407       0.10028722       1.44724852
H        2.84263739       1.66732326       0.70900812
H        5.07204155       0.89422678      -0.00172622
H        4.43912269      -0.97274464       2.42872331
H        6.10764915      -0.51111771       1.79344058
H        5.50026742      -1.38121198      -0.30526554
