14
Properties=species:S:1:pos:R:3 -1391.7328422298626=T 10.494263=T 11.33704=T -9.5357=T -7.4825=T -10.673=T 1.116=T -0.6775=T 0.116=T 10.22035=T 0.45837=T 5.4042769708=T 6.4391385184=T 0.244631942=T pbc="F F F"
C        0.88990009       0.26325234      -0.25977766
C        2.32938642       0.17751572       0.16951281
O        3.09535142      -0.94610667      -0.30659414
C        3.44454705       0.38372946      -0.78359517
C        4.74756649       0.90123163      -0.33471780
N        5.47433782       1.54923876      -1.17245549
O        6.67243576       1.98853838      -0.57090210
H        0.50093114       1.27807984      -0.09043068
H        0.27406402      -0.43717157       0.32271194
H        0.78261434       0.01575215      -1.32404904
H        2.52702584       0.42279545       1.22241492
H        3.20147371       0.57702255      -1.83415597
H        5.07133701       0.71431710       0.69788113
H        7.11815890       2.43860485      -1.31149274
