11
Properties=species:S:1:pos:R:3 -1207.4618636343896=T 11.278847=T 11.62186=T -9.4809=T -7.6258=T -10.129=T -0.8661=T -2.6936=T -1.445=T 10.0816=T 1.84312=T 3.2657664428=T 10.6348619542=T 0.377937105=T pbc="F F F"
N        1.03888142       0.06304777       0.00000000
C        2.40986015      -0.09089980       0.00000000
N        3.10225832      -1.18408988       0.00000000
C        3.13073869       1.15989225       0.00000000
C        3.68780414       2.24535462       0.00000000
C        4.42449675       3.48237474       0.00000000
O        3.90187933       4.58963510       0.00000000
H        0.62240854       0.98645588       0.00000000
H        0.42995096      -0.74624204       0.00000000
H        2.48693732      -2.01066318       0.00000000
H        5.53252438       3.35657454       0.00000000
