12
Properties=species:S:1:pos:R:3 -1279.3328087831933=T 11.541286=T 12.11578=T -9.1327=T -7.2647=T -9.475=T 0.5702=T -1.0266=T -0.298=T 8.75923=T 0.8629=T 4.8540147042=T 6.743722526=T 0.251428093=T pbc="F F F"
O        2.98938753      -0.77758591      -0.88785025
C        2.15757339       0.02912821      -0.04826236
C        2.78032129       1.39619816       0.08163093
N        2.06786107       2.36026373       0.66033325
S        2.99423272       3.75645207       0.70508512
C        4.36317167       3.05839277      -0.06763087
C        4.09257417       1.73900400      -0.35326456
H        2.59306298      -1.66268180      -0.93220754
H        2.05938716      -0.41296993       0.96075012
H        1.14091709       0.14127473      -0.46476899
H        5.26652804       3.62803741      -0.27077890
H        4.77028289       1.04626655      -0.84573594
