15
Properties=species:S:1:pos:R:3 -1434.383833556973=T 9.482028=T 10.55545=T -9.0225=T -6.7851=T -10.35=T 0.9151=T -0.0524=T 2.927=T 9.63978=T -2.64532=T 8.1440080114=T 11.3538567682=T 0.36254864=T pbc="F F F"
C        1.14659611      -0.21131551      -0.29354558
N        2.59649504      -0.11580270      -0.13058919
C        3.06067869       1.26548176      -0.01383217
C        4.55162520       1.30053449       0.23041303
C        5.51197385       1.48857776      -0.87230380
O        5.20513701       2.56926913       0.03048503
H        0.86246536      -1.26166183      -0.44515017
H        0.74330855       0.38563243      -1.13848149
H        0.65287803       0.13779362       0.62647744
H        3.05520600      -0.55354172      -0.93388977
H        2.54858599       1.72188203       0.85087973
H        2.82507377       1.90105992      -0.89569227
H        4.89164896       0.75018311       1.11624336
H        5.13469279       1.61912502      -1.89334567
H        6.52521464       1.08220251      -0.78661848
