18
Properties=species:S:1:pos:R:3 -1745.4980452192062=T 11.063008=T 12.22204=T -9.1163=T -6.9356=T -10.657=T 0.8787=T -0.1095=T 2.853=T 10.06609=T -2.524=T 8.5967180932=T 12.3500842782=T 0.065140995=T pbc="F F F"
C        0.98647216      -0.11506547       0.22161816
C        2.46944284       0.04468266      -0.06604058
C        2.78675628       0.03785379      -1.56633100
N        2.17273801       1.18588474      -2.25034312
C        3.21761023       1.13289559       0.74154318
C        4.04934663      -0.03019783       1.30574428
O        3.25355599      -1.02061480       0.58946699
H        0.81054575      -0.16899225       1.30456303
H        0.60203182      -1.03977805      -0.23556656
H        0.42019960       0.74085297      -0.17581776
H        2.49265766      -0.95345198      -1.96697780
H        3.87899161       0.11538386      -1.67891145
H        1.17877123       1.01195408      -2.41501150
H        2.59478099       1.30728291      -3.17226577
H        2.59573573       1.65378685       1.48049028
H        3.74915872       1.87197214       0.12985123
H        5.10629559      -0.05627002       0.99013445
H        3.99693917      -0.18365921       2.39586394
