18
Properties=species:S:1:pos:R:3 -1757.593632424639=T 11.044589=T 12.20453=T -9.3176=T -7.0693=T -10.74=T 0.8539=T -0.1178=T 2.922=T 10.09739=T -2.62558=T 8.6655303232=T 11.0024928428=T 0.142007229=T pbc="F F F"
N        2.10854477      -0.30711010      -1.51004743
C        2.38356097       0.06449793      -0.11323542
C        3.10801369       1.40641464      -0.03510347
C        2.31496653       2.61551780      -0.55871149
C        3.00272568       3.76885045       0.16167676
O        3.32837529       3.27063629       1.47304773
C        3.43910552       1.83482063       1.40828312
H        1.57227862      -1.17719463      -1.53873082
H        2.98987077      -0.50307336      -1.99358463
H        2.97165426      -0.69343268       0.44552622
H        1.41490090       0.15973178       0.40692330
H        4.05081123       1.33135842      -0.60820654
H        1.26115927       2.53756917      -0.24490287
H        2.33994435       2.70335490      -1.65209542
H        3.92618493       4.07457245      -0.36934016
H        2.36804552       4.65750611       0.29194082
H        4.45589630       1.53080143       1.71078934
H        2.72193140       1.40035876       2.12942094
