20
Properties=species:S:1:pos:R:3 -1939.9085217109625=T 12.376041=T 13.83739=T -8.5494=T -6.4879=T -10.077=T 0.9081=T 0.0075=T 3.138=T 9.34898=T -2.86323=T 8.2292111906=T 10.1602931406=T 0.132419747=T pbc="F F F"
C        2.06260973      -0.55558451      -1.34142853
C        2.38165120       0.04176589       0.03060044
C        3.26690639       1.27807403      -0.05367939
C        2.66260264       2.59716724      -0.60776485
C        3.33220792       3.30869701       0.59884353
C        4.61988277       4.05541011       0.26835632
N        3.50930831       1.97195762       1.24660618
H        1.42295312      -1.44478810      -1.25114891
H        2.97981776      -0.85793318      -1.87049673
H        1.53486753       0.16863362      -1.98092064
H        2.88691397      -0.71040335       0.66056254
H        1.45473384       0.31674702       0.56059955
H        4.20145782       1.01859245      -0.59080359
H        1.56473663       2.60597093      -0.55465352
H        2.98391077       2.92042733      -1.60627305
H        2.66662348       3.96711433       1.18327930
H        5.29269399       3.44289957      -0.35215485
H        5.15803647       4.33259971       1.18816436
H        4.40351471       4.98489070      -0.28142778
H        4.44052095       1.82167159       1.64495960
