17
Properties=species:S:1:pos:R:3 -1691.2833447311543=T 11.597188=T 12.48903=T -8.9852=T -7.0026=T -9.91=T 0.7187=T -0.2783=T 1.051=T 9.14827=T -0.41477=T 5.0301864116=T 6.4317489528=T 0.193908306=T pbc="F F F"
N        1.05767489       0.16156511       0.65789105
C        2.26915346       0.00837020      -0.01483589
N        2.60723019      -0.99819081      -0.74836137
C        3.21555411       1.17963692       0.08012895
C        2.74099093       2.61542422      -0.30536557
C        3.66048491       3.17158799       0.81303387
C        3.65173251       1.76186032       1.46060026
H        1.04401169       0.80366430       1.44650546
H        0.52213970      -0.68706508       0.81927065
H        1.87487782      -1.72485881      -0.74296203
H        4.10239481       0.90495274      -0.50624808
H        1.67730005       2.76275744      -0.06690846
H        2.91845369       2.93705542      -1.34013572
H        4.65715495       3.42558188       0.42455817
H        3.29125424       4.01472548       1.41232536
H        4.58347566       1.37464929       1.89449329
H        2.85672642       1.67809339       2.21899004
