19
Properties=species:S:1:pos:R:3 -1925.0092669759067=T 12.868915=T 13.92995=T -9.0142=T -6.9268=T -9.06=T 0.9134=T 0.0528=T 1.444=T 8.4152=T -0.77547=T 6.3323245794=T 0.441482271=T pbc="F F F"
C        0.97007115       0.22404121       0.76944084
C        2.32254033       0.03322747       0.13143277
C        2.64835722      -1.11950229      -0.47847793
C        3.30521421       1.17174537       0.19410503
C        2.90988311       2.60597288      -0.28547926
C        3.81211772       3.18362464       0.83549004
C        3.70246242       1.81770948       1.56093901
H        0.42171607       1.06074323       0.30804516
H        1.05758931       0.45784860       1.84230080
H        0.35481263      -0.67912532       0.66855987
H        1.94973856      -1.95723684      -0.53200360
H        3.62622928      -1.25767711      -0.94459592
H        4.22701820       0.87069501      -0.32982035
H        1.84895400       2.81699993      -0.08513257
H        3.13234286       2.86682282      -1.32952562
H        4.83487706       3.36605325       0.47418459
H        3.46202608       4.07803811       1.36885662
H        4.59025798       1.41610979       2.06832917
H        2.85858180       1.81307977       2.26641136
