12
Properties=species:S:1:pos:R:3 -1329.9749782873582=T 12.481622=T 11.84699=T -8.59=T -6.8565=T -9.047=T -0.5377=T -2.175=T -1.099=T 8.43243=T 1.69886=T 3.396844442=T 4.1072966206=T 0.530874748=T pbc="F F F"
N        0.95706231       0.14573695       0.11919119
C        2.32505518      -0.00927434       0.04645531
C        3.00414457      -1.21038763       0.03817800
C        2.38050597      -2.51170336       0.01936693
O        2.99107666      -3.58135839       0.01281337
C        3.06478537       1.21167793       0.02586005
C        3.67602161       2.26158897      -0.00598517
H        0.57548485       1.04583431      -0.14912280
H        0.36600604      -0.65908493      -0.05937117
H        4.09279161      -1.18140855       0.03839532
H        1.25603810      -2.52709016       0.00435291
H        4.23309772       3.17640919      -0.03021394
