19
Properties=species:S:1:pos:R:3 -1866.7889478777122=T 11.582854=T 13.20158=T -9.4462=T -7.1733=T -11.437=T 0.9051=T -0.0091=T 2.807=T 10.81582=T -2.5307=T 9.2835385402=T 10.4782676362=T 0.14758956=T pbc="F F F"
C        1.04433515       0.23365230      -0.64814178
C        2.53596156       0.21373326      -0.98717353
C        3.43368378       0.25468452       0.25403872
C        4.92144328       0.24549647      -0.06812090
C        5.55549120       1.52505853      -0.66012904
O        6.57869643       1.55630584       0.37719150
C        5.91887323       0.46876013       1.08886379
H        0.42396642       0.20495196      -1.55520351
H        0.77617764       1.14287479      -0.08849986
H        0.76711550      -0.63127313      -0.02602686
H        2.77646439       1.07085826      -1.63984016
H        2.77109480      -0.69109470      -1.57389681
H        3.19852522      -0.60910753       0.90165613
H        3.19980220       1.15695696       0.84816010
H        5.17810473      -0.64569352      -0.66181235
H        4.90312871       2.41713480      -0.61151574
H        5.99899070       1.45199706      -1.66600102
H        6.61714541      -0.35187639       1.31882445
H        5.44957963       0.82422040       2.02483688
