19
Properties=species:S:1:pos:R:3 -1786.9146054246482=T 11.162824=T 12.13059=T -9.0841=T -6.9172=T -10.47=T 0.9264=T -0.019=T 3.005=T 9.80463=T -2.70599=T 8.4576181998=T 11.1886082274=T 0.126541363=T pbc="F F F"
C        0.97704310      -0.09721599       0.02675511
C        2.50813868      -0.00670496      -0.02489033
C        3.03936936      -0.76312547      -1.24970605
C        3.01928206       1.45415672       0.00264664
C        2.43728269       2.27469209       1.16504661
N        4.49730422       1.44789938      -0.00968616
H        0.55756390       0.30777719       0.95760562
H        0.65364523      -1.14555641      -0.05317962
H        0.52477424       0.45060642      -0.81691530
H        2.90879151      -0.49936897       0.88453402
H        2.60974934      -0.34657444      -2.17552574
H        2.75801303      -1.82554280      -1.20283723
H        4.13090644      -0.68550286      -1.32164842
H        2.70511300       1.92720891      -0.94776472
H        2.67049826       1.79765887       2.13206945
H        1.34578350       2.39298789       1.09996867
H        2.87775396       3.28311298       1.17557636
H        4.83419734       1.09095989       0.89150992
H        4.83874014       2.41106155      -0.06726883
