18
Properties=species:S:1:pos:R:3 -1790.7786112153726=T 12.90613=T 14.78108=T -9.1904=T -6.944=T -9.151=T 0.8591=T -0.068=T 2.474=T 8.69606=T -2.01324=T 4.129663695=T 9.9220912374=T 0.355420965=T pbc="F F F"
C        0.95195755       0.00602921       0.00655679
C        2.40828625       0.00377459       0.00915289
C        3.62502909      -0.00930805       0.01487529
C        5.08828151      -0.00780374      -0.01242980
C        5.63729203      -0.80218986      -1.21165871
C        5.62606361       1.44518270       0.01282268
N        7.08735604       1.45756464       0.16892810
H        0.55404305       1.03204810       0.01084388
H        0.54982871      -0.51089885       0.89100415
H        0.55464931      -0.50135832      -0.88554993
H        5.44382256      -0.49849310       0.91471050
H        5.25010191      -0.38556791      -2.15322271
H        5.33360534      -1.85582925      -1.15482194
H        6.73308642      -0.73891303      -1.22292647
H        5.08083305       2.00272060       0.79779659
H        5.37901454       1.92092969      -0.94974761
H        7.33610864       1.25786232       1.14139091
H        7.45182040       2.39058025      -0.03204462
