19
Properties=species:S:1:pos:R:3 -1874.652821080705=T 12.163136=T 13.24995=T -9.6931=T -7.4689=T -9.632=T 1.0206=T -0.1101=T 1.227=T 9.09688=T -0.65508=T 6.6537458858=T 0.460064182=T pbc="F F F"
C        0.82724696      -0.20205887       0.03421809
C        2.35497389      -0.13734818      -0.08658374
C        2.87067602      -1.09339791      -1.16678226
C        2.86133810       1.30918520      -0.34249081
O        2.38730583       1.84581832      -1.58235347
C        2.59522682       2.21650379       0.83370982
C        2.10228505       3.45758835       0.76131663
H        0.44571909       0.48619694       0.80250191
H        0.50285385      -1.21873855       0.29849396
H        0.34275090       0.04801864      -0.92360984
H        2.78964865      -0.44131107       0.88359860
H        2.51127355      -0.78412731      -2.15913580
H        2.52475799      -2.12056776      -0.98080994
H        3.97059520      -1.10703460      -1.19790322
H        3.95767388       1.24627670      -0.47801448
H        1.43440071       2.02065197      -1.47105698
H        2.84345264       1.79135053       1.81317201
H        1.87081854       3.92301405      -0.19907260
H        1.93561233       4.05286976       1.65970211
