19
Properties=species:S:1:pos:R:3 -1865.4172974235294=T 11.807615=T 13.23287=T -9.002=T -6.9753=T -10.879=T 0.999=T 0.1076=T 3.124=T 10.34541=T -2.83793=T 8.6994404942=T 11.6300355832=T 0.238055286=T pbc="F F F"
C        0.98975048       0.08022319       0.05959027
C        2.48141896      -0.11633584      -0.17418470
C        2.77035465      -0.91098614      -1.44759089
O        3.05907038       1.20873249      -0.20769336
C        4.45788442       1.22872109      -0.07888144
C        5.34158332       1.33010452      -1.30404667
C        5.12870575       2.52806152      -0.39501915
H        0.81424563       0.64787906       0.98283418
H        0.48267616      -0.89104970       0.14132627
H        0.54304135       0.63507160      -0.77859667
H        2.91697355      -0.65516687       0.69266831
H        2.35650297      -0.39010699      -2.32402737
H        2.30559442      -1.90602546      -1.38541801
H        3.84863096      -1.04867228      -1.60015034
H        4.83597119       0.64883894       0.77337885
H        4.83856407       1.35454267      -2.27053457
H        6.30981013       0.82686001      -1.29563263
H        5.94539404       2.86093284       0.24524640
H        4.48063757       3.32073535      -0.76933850
