15
Properties=species:S:1:pos:R:3 -1570.5068843387364=T 11.992561=T 13.09685=T -8.8567=T -6.78=T -9.269=T 1.0289=T -0.0602=T 1.197=T 8.66079=T -0.61174=T 4.4178195576=T 10.6803524176=T 0.708002511=T pbc="F F F"
C        0.34778820       0.28667181      -0.01144800
C        1.65023537      -0.45514323      -0.01243738
C        1.77142645      -1.79475270      -0.06360633
O        2.69173593       0.44153563       0.04560838
C        4.01273428      -0.12547775       0.05049947
C        4.99705476       0.94266593       0.11693763
C        5.85147816       1.80101880       0.16767881
H        0.29032109       0.96067426      -0.87887926
H        0.26207870       0.90849395       0.89172729
H       -0.49588589      -0.41136931      -0.04576518
H        0.87130368      -2.40390802      -0.10678902
H        2.72526117      -2.31694882      -0.06475665
H        4.16379874      -0.72586445      -0.86565241
H        4.12466992      -0.80134058       0.91842488
H        6.59688943       2.56883450       0.21184778
