14
Properties=species:S:1:pos:R:3 -1386.584867246032=T 8.56632=T 9.27365=T -9.2409=T -7.0511=T -11.176=T 1.0637=T 0.1512=T 3.007=T 10.85839=T -3.18211=T 8.9870880142=T 12.3641194934=T 0.240881435=T pbc="F F F"
C        0.70151253       1.17236893      -0.24051459
C       -0.73784150       1.17046982       0.25308068
O       -1.43211082       0.00195095      -0.20035603
C       -0.73996531      -1.17359609       0.23795972
C        0.69937741      -1.17169219      -0.25569233
O        1.39365422      -0.00318823       0.19777882
H        0.71541282       1.22509835      -1.34771532
H        1.25560142       2.03133876       0.16557832
H       -1.29038624       2.03565733      -0.14180339
H       -0.75163501       1.20890701       1.36088409
H       -0.75381959      -1.22628721       1.34515838
H       -1.29405964      -2.03257990      -0.16809171
H        1.25195336      -2.03689319       0.13911105
H        0.71309634      -1.21005435      -1.36349768
