19
Properties=species:S:1:pos:R:3 -1868.8670769005553=T 12.5785=T 13.82718=T -9.4298=T -7.2075=T -9.255=T 1.1114=T -0.0559=T 1.433=T 8.64023=T -0.81351=T 6.4722923748=T 0.433782476=T pbc="F F F"
C        1.53625003       0.49906160      -1.02842376
C        2.96683464       0.66878676      -0.55258531
O        3.21776801       2.05735567      -0.34356329
C        4.55199521       2.29770259       0.10788735
C        4.78883578       3.78097468       0.23155375
C        4.51574899       4.60100610      -0.99817750
C        5.24800125       4.30497090       1.37724745
H        1.31619453      -0.56445719      -1.19616454
H        1.37355303       1.04022520      -1.97082588
H        0.83065375       0.88634602      -0.28059216
H        3.68059503       0.26726933      -1.30122597
H        3.13354267       0.10996746       0.39106370
H        5.26933281       1.86840811      -0.62602957
H        4.72857397       1.79599892       1.07922445
H        5.12916686       4.25267039      -1.84556475
H        4.72730078       5.66434869      -0.82754649
H        3.46532240       4.49123531      -1.30554567
H        5.42213989       3.68328230       2.25783865
H        5.46892038       5.37040715       1.46775955
