14
Properties=species:S:1:pos:R:3 -1387.386699401532=T 10.18118=T 11.13429=T -9.608=T -7.541=T -10.66=T 1.4697=T -0.3781=T 0.392=T 10.17299=T 0.20297=T 5.5014571976=T 6.5890003966=T 0.193593359=T pbc="F F F"
O        1.08043469       0.89784663       1.42659395
N        2.47636462       0.71590514       1.26046550
C        2.88966777       1.27713281       0.18415166
C        4.34397969       1.20368015      -0.16760529
C        4.98328750       2.57557650      -0.25142403
C        6.05896564       2.87092961      -1.21164843
O        4.71656342       3.34222810      -1.44607047
H        0.91640738       0.42618689       2.26322917
H        2.20098871       1.81957365      -0.47799778
H        4.46278799       0.70579866      -1.14442007
H        4.86403306       0.59956177       0.59158210
H        4.94151969       3.16938239       0.67023489
H        6.39937478       2.07986940      -1.88899250
H        6.79362508       3.64946832      -0.98184872
