14
Properties=species:S:1:pos:R:3 -1534.408637205872=T 11.936263=T 12.45499=T -10.0244=T -7.8808=T -9.622=T 0.0428=T -1.6822=T -0.247=T 9.2095=T 0.76221=T 5.051313626=T 6.7586504404=T 0.268788754=T pbc="F F F"
C        1.28979432      -0.10435674      -1.15025682
C        2.12790735       0.01259777      -0.11601894
C        3.03102945       1.19569486       0.12177722
C        4.50283273       0.81579727       0.09730205
C        5.30355652       0.83854249       1.17904858
C        5.02872000       0.40356625      -1.17160141
N        5.42755235       0.09005819      -2.22522916
H        0.65867670      -0.98513431      -1.27344077
H        1.20957274       0.67623026      -1.91065473
H        2.19663495      -0.79345886       0.62238054
H        2.81913378       1.64221482       1.10636044
H        2.84057154       1.96597560      -0.64198938
H        4.91414667       1.15695772       2.14683254
H        6.35154090       0.54701467       1.12065983
