16
Properties=species:S:1:pos:R:3 -1549.0229793927879=T 9.999228=T 11.02414=T -8.8999=T -6.763=T -10.296=T 0.7967=T -0.2563=T 2.797=T 9.5749=T -2.54521=T 8.0558787626=T 13.5963791516=T 0.060637373=T pbc="F F F"
O        2.00626385      -0.20896926      -1.30769584
C        2.22045557       0.16708570       0.06116904
C        3.38573792       1.14212969       0.09297979
N        3.16253150       2.44096529      -0.60040966
C        2.82519476       3.10179878       0.68979985
C        3.50561270       1.92148184       1.43760263
O        4.82534785       2.15553082       1.90198105
H        1.23882594      -0.80361831      -1.34321971
H        2.46885095      -0.71304413       0.68528762
H        1.31268001       0.64207942       0.48180304
H        4.30399200       0.62361617      -0.23355961
H        2.42618111       2.41743662      -1.30986195
H        3.29088105       4.08972183       0.83517245
H        1.74685098       3.18039195       0.91748996
H        2.95893013       1.50022133       2.29252847
H        5.33395369       2.52621226       1.15707287
