13
Properties=species:S:1:pos:R:3 -1379.1151458000468=T 10.082881=T 11.01006=T -10.1765=T -7.9896=T -9.919=T 1.2973=T -0.431=T 0.94=T 9.38617=T -0.39395=T 5.3815007426=T 6.6853747144=T 0.491279602=T pbc="F F F"
C        1.81621750      -0.77429041      -1.16864702
C        2.45418563      -0.23721795      -0.12345487
C        3.18036659       1.07612253      -0.14726053
C        4.68565553       0.90092123       0.17010125
C        5.40450929       2.17071199       0.20009131
N        5.95937711       3.19675149       0.21626844
H        1.29965036      -1.73176933      -1.09153199
H        1.78289550      -0.26822608      -2.13696578
H        2.46312257      -0.77606615       0.83160899
H        2.74703885       1.75965452       0.60122627
H        3.06770954       1.55831701      -1.12930877
H        5.15642428       0.24957533      -0.58244621
H        4.81606726       0.40640583       1.14591891
