13
Properties=species:S:1:pos:R:3 -1327.925453751589=T 10.3856=T 11.02265=T -10.1436=T -8.0929=T -11.22=T 0.8803=T -1.0359=T -0.02=T 10.81172=T 0.55935=T 5.4095587744=T 6.6989263842=T 0.463454253=T pbc="F F F"
C        1.10080679      -0.09598370       0.59101981
C        2.50458917       0.00160075      -0.00367604
O        2.53829373      -0.43844885      -1.38400692
N        2.63793142      -1.84818023      -1.38549421
C        2.61126701      -2.30750980      -2.57971038
C        3.00989929       1.38110721       0.00281925
N        3.39351677       2.48018701       0.05769998
H        1.10304476       0.24958499       1.63310206
H        0.77923836      -1.14437988       0.56390495
H        0.39771091       0.51736726       0.01402059
H        3.21071950      -0.62352654       0.56773947
H        2.69909587      -3.39000293      -2.67348585
H        2.51213641      -1.67319527      -3.46741271
