21
Properties=species:S:1:pos:R:3 -2069.0910923643005=T 13.264705=T 14.60273=T -9.1144=T -6.9829=T -9.088=T 0.8931=T -0.0213=T 1.48=T 8.42495=T -0.80589=T 6.363085506=T 0.381092956=T pbc="F F F"
C        0.94893782      -0.11721050      -0.15914499
C        2.44846949       0.13032809      -0.00991801
C        2.90815006       1.57388241      -0.00209283
C        2.05155888       2.60683592      -0.02314770
C        4.42238216       1.75562822       0.02673508
C        5.02642812       1.53117866      -1.37485873
C        4.88862272       3.10091724       0.59419798
H        0.73603510      -1.19548838      -0.15801491
H        0.56479393       0.29943039      -1.10179204
H        0.37944065       0.33456916       0.66617523
H        2.98653167      -0.40642790      -0.81142875
H        2.80634302      -0.33697229       0.92654575
H        0.97261441       2.45689040      -0.07041394
H        2.39539154       3.64114149       0.00595727
H        4.82199989       0.96094900       0.68546086
H        4.68114215       2.31411921      -2.06710670
H        4.74160651       0.55789621      -1.79809723
H        6.12524364       1.56947847      -1.33500129
H        4.60540171       3.93675874      -0.06359162
H        5.98475042       3.11561986       0.68462551
H        4.45894611       3.28923561       1.58826103
