18
Properties=species:S:1:pos:R:3 -1754.081554951374=T 11.467722=T 12.47868=T -8.7325=T -6.6775=T -10.165=T 1.1114=T -0.671=T 0.295=T 9.61411=T 0.42741=T 3.740223669=T 11.9050241326=T 0.168124715=T pbc="F F F"
C        0.87519093      -0.42856240      -0.18101175
N        2.30854894      -0.24570169      -0.39621054
C        2.75200876      -0.97207343      -1.58571942
C        2.65871697       1.16890462      -0.49266413
C        4.15808287       1.45714390      -0.33712288
C        4.90166414       0.68638102       0.73020046
O        4.69288673       2.32322729      -1.01417332
H        0.56989962       0.07944589       0.74482122
H        0.65535123      -1.50021311      -0.07139991
H        0.25480077      -0.03423391      -1.01606547
H        2.53142613      -2.04232037      -1.46789074
H        3.83801833      -0.86044991      -1.71704025
H        2.25902365      -0.61234835      -2.51575664
H        2.16132833       1.70462006       0.33584764
H        2.32399875       1.64629567      -1.43867531
H        4.54194754       1.01432644       1.71908704
H        5.97604485       0.88319221       0.65275270
H        4.68016147      -0.38721391       0.66907131
