15
Properties=species:S:1:pos:R:3 -1564.8363969350808=T 10.651761=T 11.8096=T -9.8754=T -7.584=T -9.825=T 1.3109=T -0.1492=T 0.111=T 10.32342=T 0.57137=T 4.4312348428=T 6.712230082=T 0.473225962=T pbc="F F F"
C        1.68795575       0.02589932      -1.08131837
O        3.06468928       0.17894608      -0.66088272
C        3.39162937       1.42914324      -0.22839453
O        2.61324102       2.36329566      -0.20719779
C        4.83397741       1.46448930       0.25315979
C        5.45782390       2.82532877       0.14177878
C        6.67757439       3.05302160      -0.35444775
H        1.60139737      -1.01186175      -1.41757911
H        1.45719038       0.72082935      -1.89869921
H        1.00731602       0.22070007      -0.24243311
H        5.42146009       0.69707015      -0.26876329
H        4.79345972       1.15853426       1.31556432
H        4.84538842       3.65697278       0.50121322
H        7.30605162       2.24220035      -0.73208629
H        7.09024525       4.06170082      -0.39886393
