12
Properties=species:S:1:pos:R:3 -1261.2831818860602=T 8.331001=T 9.04127=T -9.8321=T -7.5709=T -11.051=T 0.8201=T -1.2845=T -0.519=T 10.59316=T 1.12954=T 3.6747466624=T 11.9205471798=T 0.164687151=T pbc="F F F"
O        2.56356312      -1.16104297      -0.59194958
C        2.11973618      -0.06846863      -0.29081509
C        2.95865465       1.14673917       0.02897579
C        4.47023837       0.90050596       0.07331269
C        4.91748586       0.22855992       1.35350674
O        5.90262170       0.55419718       1.98837975
H        1.01419447       0.10784873      -0.25088126
H        2.57671125       1.58344351       0.96913938
H        2.71103092       1.89944464      -0.74114165
H        5.04101427       1.82998144      -0.04968086
H        4.73720056       0.21729426      -0.75223087
H        4.27104865      -0.61967319       1.69609496
