14
Properties=species:S:1:pos:R:3 -1372.84017446296=T 8.58543=T 9.52635=T -9.5669=T -7.2613=T -11.483=T 0.904=T -0.1406=T 2.844=T 10.89572=T -2.58479=T 9.3123900824=T 14.3131422176=T 0.151856916=T pbc="F F F"
O        2.14053835      -0.40048506      -1.33740450
C        2.32897483       0.04000156       0.01406571
C        3.12605083       1.32836294      -0.02188349
C        2.34936161       2.57905756      -0.48270287
O        2.34798015       3.13225854       0.86897441
C        3.22096241       2.06325547       1.33124135
H        1.57884949      -1.19327703      -1.32251643
H        2.87848861      -0.71820108       0.60535162
H        1.35704355       0.22135801       0.51256834
H        4.08149438       1.15974126      -0.53741861
H        1.32928498       2.40312321      -0.85915635
H        2.89375038       3.23296636      -1.18373358
H        4.22551058       2.43967454       1.58831579
H        2.79666985       1.53585372       2.20297863
