18
Properties=species:S:1:pos:R:3 -1822.6403762954903=T 11.675963=T 13.04972=T -11.2171=T -8.9728=T -11.609=T 0.7273=T -0.246=T 1.551=T 11.0807=T -1.13886=T 5.360968661=T 10.6570182524=T 0.276251107=T pbc="F F F"
C        1.01193540      -0.25013727       0.01705110
C        2.52762749      -0.04536609       0.01456090
C        3.00203679       1.44082584      -0.00011658
C        2.53489945       2.17738067      -1.27567102
C        2.53480827       2.20238834       1.26062950
C        4.47551382       1.41919405       0.00013818
N        5.64254673       1.39800936       0.00036520
H        0.78637270      -1.32557359       0.02756578
H        0.53251147       0.17296797      -0.87684651
H        0.53310057       0.19025876       0.90287108
H        2.96624232      -0.54789484      -0.86193715
H        2.96676734      -0.53063200       0.90047107
H        2.85797520       1.64469432      -2.18044267
H        2.94894573       3.19389341      -1.30931572
H        1.43949342       2.25473379      -1.28564948
H        2.85771491       1.68758742       2.17575513
H        1.43940937       2.28003148       1.26892986
H        2.94894900       3.21932838       1.27430135
