15
Properties=species:S:1:pos:R:3 -1472.3010145186872=T 13.729377=T 14.01033=T -7.6628=T -5.9233=T -8.587=T 0.6828=T -0.4039=T 0.051=T 7.69193=T 0.73236=T 3.2310503628=T 10.6367093456=T 0.725124243=T pbc="F F F"
N        1.18715364       0.12352805       0.33032175
C        2.49049341       0.05743992      -0.12269933
S        3.34914676      -1.38550297      -0.21704384
N        3.04070252       1.25280651      -0.45054964
C        2.68031152       2.62830757      -0.03885328
C        4.13500869       3.05886471      -0.36703226
C        4.46570652       1.56173400      -0.64018367
H        0.60246993       0.89314061       0.00873770
H        0.72808782      -0.78189622       0.36609851
H        2.40191349       2.69422964       1.02603460
H        1.89088382       3.09208693      -0.65221805
H        4.21650840       3.70344592      -1.24937544
H        4.68229605       3.51100244       0.46686143
H        4.83992921       1.31303238      -1.64316090
H        5.09979823       1.06626051       0.11076243
