14
Properties=species:S:1:pos:R:3 -1444.652282339943=T 9.597086=T 10.49235=T -9.5254=T -7.5234=T -10.729=T 0.8271=T -0.2041=T 0.581=T 9.75528=T 0.10787=T 4.4325490944=T 6.4374399102=T 0.134441934=T pbc="F F F"
O        1.84776734      -0.42220359      -1.18340960
C        2.00961792       0.17746161       0.11083648
C        3.12669100       1.19438039       0.01687652
C        2.81980068       2.53639112      -0.70855938
N        3.05384216       3.21153800       0.58027267
C        3.33791245       2.06509643       1.29100355
O        3.62500199       1.85570655       2.45322550
H        1.15473418      -1.10052359      -1.11452493
H        2.27608764      -0.57553494       0.87348192
H        1.07639238       0.67597459       0.43642031
H        4.05558731       0.71450572      -0.32330149
H        1.78954471       2.62703097      -1.08254002
H        3.53413346       2.81369515      -1.49669500
H        3.05069680       4.19245158       0.85650346
