14
Properties=species:S:1:pos:R:3 -1471.9703033636868=T 10.628541=T 11.14985=T -9.2156=T -7.1235=T -9.665=T 0.6631=T -1.1094=T 0.111=T 9.27677=T 0.63364=T 3.6945224294=T 6.5383521156=T 0.311492262=T pbc="F F F"
C        0.75872223       0.63868350       0.77968546
C        2.02245557       0.30455488       0.49464766
C        3.09825987       1.22285371      -0.00116867
N        2.81346184       2.67428855      -0.18585270
C        3.61200182       3.07058862       1.01303791
C        4.11652604       1.62820179       1.10879848
O        4.95687372       1.04715984       1.74557322
H        0.05102272      -0.10577641       1.14398032
H        0.37376841       1.65395616       0.65784160
H        2.35188682      -0.73005014       0.63339609
H        3.59483802       0.77117129      -0.87984454
H        1.82173618       2.90280815      -0.10433140
H        4.38310209       3.83310052       0.82102872
H        3.03375466       3.36116954       1.90745786
