17
Properties=species:S:1:pos:R:3 -1695.1067335591847=T 10.365895=T 11.5441=T -9.6499=T -7.5323=T -11.62=T 0.9123=T -0.0946=T 2.696=T 10.89611=T -2.40291=T 9.1709840494=T 12.7225506208=T 0.088805089=T pbc="F F F"
C        1.02293955       0.05918196       0.08519861
C        2.53588811      -0.02844235       0.05477107
O        3.09816845       1.03049787       0.84380270
C        4.44134181       0.62043638       1.13097710
C        4.32040278      -0.86376828       1.49216802
C        3.14776860      -1.35211205       0.60387651
O        3.51137557      -2.26782037      -0.43447932
H        0.58991643      -0.74780545      -0.52183558
H        0.67825322       1.02077873      -0.31809275
H        0.65448481      -0.03723704       1.11670442
H        2.89411533       0.07652299      -0.99525715
H        5.08493190       0.76664127       0.23848691
H        4.82055766       1.25824471       1.94001348
H        5.22965908      -1.44958995       1.29984272
H        4.06349000      -0.97226576       2.55550813
H        2.40687117      -1.90387327       1.19980742
H        4.09960554      -1.79749940      -1.05369231
