17
Properties=species:S:1:pos:R:3 -1677.45115938041=T 10.348976=T 11.62992=T -9.9194=T -7.5816=T -11.787=T 0.8377=T -0.0675=T 2.434=T 11.59615=T -2.12191=T 9.1166657828=T 10.8680672216=T 0.176424056=T pbc="F F F"
C        0.82465915       0.14851664      -0.69459481
C        2.27625412       0.01216902      -0.29667739
C        2.58460436       0.02348084       1.19457342
C        2.60383366       1.43844515       1.78714987
O        3.73575842       2.19262289       1.35908962
C        3.23146617      -0.60409126      -1.23791960
O        3.19528438       0.83294800      -1.10012188
H        0.72895159       0.23563118      -1.78419985
H        0.37336710       1.04115858      -0.23753724
H        0.25217500      -0.72883029      -0.35844450
H        3.56482876      -0.44045729       1.38391676
H        1.82609771      -0.58412431       1.71570115
H        2.66676389       1.37853603       2.88437187
H        1.65948412       1.96647938       1.54440304
H        3.82606372       2.02861435       0.39868845
H        2.87321104      -0.97544028      -2.20427417
H        4.13481680      -1.08703865      -0.84961477
