16
Properties=species:S:1:pos:R:3 -1530.657767026405=T 10.819198=T 11.43879=T -9.3808=T -7.3448=T -10.556=T 1.2517=T -0.5009=T 0.359=T 10.06422=T 0.27903=T 5.337287335=T 6.390176447=T 0.249370472=T pbc="F F F"
C        6.09850269       0.32850114       0.35942554
O        5.91755088       1.65583534      -0.14836869
N        4.55167399       1.99236056      -0.06507978
C        4.32434717       3.17777323      -0.50283329
C        2.93177987       3.73419278      -0.50159276
C        1.83222542       2.72051022      -0.17229051
O        1.95458856       2.15883439       1.13140044
H        7.16720819       0.11676087       0.23398030
H        5.50324582      -0.39839198      -0.21375202
H        5.83032546       0.27129638       1.42582961
H        5.15365557       3.80151706      -0.86725368
H        2.73487892       4.17765227      -1.49386732
H        2.89313427       4.57345290       0.21637487
H        1.82448532       1.93008309      -0.94739669
H        0.85473577       3.22423465      -0.20144123
H        2.81873209       1.69811709       1.12536522
