17
Properties=species:S:1:pos:R:3 -1728.7258960872791=T 12.199036=T 13.37784=T -8.94=T -6.8861=T -9.174=T 0.9824=T -0.0663=T 1.275=T 8.65986=T -0.69713=T 6.3708470296=T 0.540015983=T pbc="F F F"
O        2.28769447      -0.94421681      -0.85007244
C        1.99228293       0.17692803      -0.00020834
C        3.20343849       1.06562682       0.05897707
C        3.45962793       2.07222561      -1.02487315
C        3.01219978       2.55047495       0.34914367
C        3.95616906       3.25223707       1.23771648
C        3.62990202       4.23410163       2.09046212
H        1.54191875      -1.56526736      -0.79222740
H        1.73063003      -0.16524840       1.01895739
H        1.13213686       0.75276458      -0.39443400
H        4.08320953       0.60233860       0.51317050
H        2.73659318       2.14034346      -1.83892922
H        4.49316593       2.26672104      -1.31351538
H        1.97419513       2.88889561       0.41860983
H        5.00203814       2.92735936       1.17470726
H        2.60127462       4.59143672       2.18238836
H        4.38075315       4.71224908       2.71981725
