12
Properties=species:S:1:pos:R:3 -1276.9646155234736=T 11.507957=T 11.98726=T -9.2261=T -7.435=T -9.183=T 0.4956=T -1.0738=T -0.274=T 8.48277=T 0.86101=T 4.6475408184=T 10.1430342894=T 0.548758732=T pbc="F F F"
O        1.53317691      -0.25535722      -1.00191713
C        2.62601541      -0.15317669      -0.08563811
C        2.99534264       1.29309062       0.05413373
C        2.30532120       2.40096532      -0.38948797
C        2.98895833       3.59598283      -0.03737708
N        4.12960850       3.47869491       0.63230550
S        4.43081313       1.83997583       0.86187734
H        1.25061562      -1.18448287      -1.02181214
H        3.50155814      -0.72846994      -0.44201680
H        2.34757822      -0.55540486       0.90723776
H        1.36874014       2.34550316      -0.93966958
H        2.64132176       4.60268892      -0.27955551
