13
Properties=species:S:1:pos:R:3 -1335.0028313402884=T 10.117541=T 10.2657=T -9.0867=T -7.1659=T -9.304=T 1.0452=T 0.086=T 0.313=T 8.63639=T 0.19977=T 5.0027483098=T 6.634304881=T 0.305069359=T pbc="F F F"
C        3.04074388      -0.95896745       0.73740181
O        2.61637054      -0.03962334      -0.29811975
N        3.23620530       1.18573717      -0.13538128
C        2.57985112       2.34630535       0.13414094
C        3.56323527       3.32962475       0.10917966
C        4.75864297       2.63831972      -0.18216346
N        4.55112873       1.31693805      -0.34205459
H        2.52905019      -1.89680928       0.49476786
H        2.72691970      -0.59594487       1.72805428
H        4.12938644      -1.09641930       0.70279343
H        1.50955282       2.36376991       0.30455912
H        3.42604250       4.39233848       0.27867207
H        5.76530054       3.03299080      -0.28760010
