19
Properties=species:S:1:pos:R:3 -1874.392495939753=T 11.656412=T 13.2638=T -9.1608=T -7.082=T -11.255=T 0.9269=T 0.0375=T 2.972=T 10.588=T -2.71686=T 9.182465153=T 10.149617946=T 0.131528945=T pbc="F F F"
C        1.84726338      -0.56602940      -1.25448372
C        2.40845741       0.08702996       0.01073753
C        3.39554451       1.20027274      -0.30146485
C        2.82616321       2.55125673      -0.78615376
C        3.41863055       3.13333468       0.51517489
C        4.50614628       4.18038343       0.39125293
O        3.94455596       1.82104821       0.90525724
H        1.13807557      -1.36749245      -1.00600259
H        2.64948867      -1.00826401      -1.86492115
H        1.31494531       0.16378769      -1.88361102
H        2.92626694      -0.66371864       0.62993978
H        1.59301710       0.49774054       0.62943088
H        4.21402338       0.80511882      -0.93254772
H        1.73117561       2.58927219      -0.86419825
H        3.27163826       2.94804609      -1.70785569
H        2.65572382       3.46265316       1.24400227
H        5.26636503       3.87085937      -0.34085477
H        5.00171628       4.33609819       1.36021933
H        4.07626272       5.14129271       0.06819866
