13
Properties=species:S:1:pos:R:3 -1447.8080561713236=T 9.997896=T 10.59979=T -9.3237=T -7.2567=T -9.759=T 1.1886=T -0.4526=T 0.087=T 10.33884=T 0.5945=T 4.3600544802=T 6.359179947=T 0.381138269=T pbc="F F F"
C        1.06458081      -0.09069232       0.12817016
C        2.37613350       0.05129419      -0.06841900
C        3.23778918       1.29405788      -0.02630309
C        4.50691901       0.86094120      -0.76456825
C        4.45577443      -0.65875439      -0.73860794
O        5.31124947      -1.46056357      -1.01080477
O        3.17731112      -1.05722403      -0.35200057
H        0.58760938      -1.06730374       0.07613474
H        0.45549005       0.78214367       0.35406672
H        3.46460337       1.54785991       1.02089469
H        2.72884898       2.15491547      -0.47606538
H        4.50567042       1.16846348      -1.82151763
H        5.44662028       1.20912225      -0.32123968
