16
Properties=species:S:1:pos:R:3 -1640.8492839841817=T 12.853507=T 14.15243=T -9.3478=T -7.1043=T -9.093=T 1.0554=T -0.2229=T 1.202=T 8.61615=T -0.57986=T 4.3560373338=T 10.7033642192=T 0.832458954=T pbc="F F F"
N        1.92574988      -0.78857833      -1.11549358
C        2.90949887      -0.44539337      -0.07276664
C        2.88241305       1.02997625       0.20138254
C        3.95336601       1.83080480       0.14975876
C        3.91892735       3.31763262       0.42321607
C        4.84158228       3.72415736       1.48164945
C        5.61954351       4.04310062       2.35718840
H        1.88367948      -1.80313859      -1.23559841
H        2.22946014      -0.40045452      -2.01236102
H        3.94953530      -0.75676033      -0.29622599
H        2.60676830      -0.98156235       0.84375425
H        1.89773282       1.44673718       0.44369496
H        4.93573254       1.41279816      -0.09660175
H        2.89400509       3.62491862       0.68762982
H        4.18219869       3.86932271      -0.49768225
H        6.29992669       4.32945914       3.13280540
