17
Properties=species:S:1:pos:R:3 -1666.6900556339358=T 12.856518=T 13.20729=T -8.9658=T -6.9824=T -9.636=T 0.5433=T -1.181=T 0.231=T 9.23509=T 0.44591=T 4.4795645856=T 5.748300925=T 0.732934253=T pbc="F F F"
C        3.25627041      -1.00763995       1.18841692
C        2.72588416      -0.23673120      -0.02140986
C        2.98395347       1.28226367       0.06113513
C        4.43402174       1.62617558      -0.01198105
N        5.02049939       2.28526068       0.92548842
N        6.39491498       2.48693569       0.62960686
C        6.99115582       3.11388938       1.57705437
H        3.04349376      -2.08205466       1.09670297
H        2.79115174      -0.65007610       2.11947739
H        4.34399256      -0.88814102       1.29870217
H        1.64061171      -0.39589385      -0.11952547
H        3.17893776      -0.63146901      -0.94653924
H        2.56309179       1.70049442       0.98782080
H        2.47532930       1.77232775      -0.78805850
H        5.01134336       1.29551546      -0.89249521
H        8.05709147       3.32105271       1.45393196
H        6.46799659       3.43887045       2.48761233
