16
Properties=species:S:1:pos:R:3 -1599.3071405102783=T 10.658076=T 11.23725=T -9.0975=T -7.1013=T -10.371=T 1.0646=T -0.273=T 0.505=T 9.8688=T 0.11645=T 5.1043300396=T 6.4791735978=T 0.201245477=T pbc="F F F"
C        0.93190481       0.03215910      -0.15325668
C        2.43912512       0.00647469       0.15086285
C        3.16177429       1.30220421      -0.24700357
C        3.58718951       1.18125714      -1.70160676
O        4.49371291       0.07493287      -1.90212028
N        4.07054901      -1.16249648      -1.38695796
C        3.12612166      -1.16223487      -0.50879393
H        0.43332003       0.80339685       0.45203329
H        0.46112587      -0.93523085       0.07378621
H        0.74365388       0.25086608      -1.21453504
H        2.55363601      -0.15026702       1.23846009
H        2.50872110       2.17787420      -0.10955913
H        4.05690724       1.45187339       0.37564931
H        4.14658641       2.05687070      -2.05665782
H        2.70864894       1.03121425      -2.35631847
H        2.85853321      -2.17358425      -0.18266212
