21
Properties=species:S:1:pos:R:3 -1954.2076178443488=T 12.789543=T 14.02089=T -8.485=T -6.4149=T -9.992=T 0.92=T -0.0339=T 3.325=T 9.27527=T -3.04672=T 8.1560966464=T 12.1673289142=T 0.136413709=T pbc="F F F"
C        2.43976901      -1.67721041       0.14858107
C        3.72617526      -1.00616642      -0.33454810
C        3.92023735      -1.22106498      -1.83855667
N        3.65907862       0.43089800      -0.01464424
C        4.95077925       1.12072810      -0.04788651
C        4.77825823       2.60046149       0.29326345
N        4.12575572       2.76759231       1.60710525
H        2.31435372      -1.56122224       1.23633730
H        2.45169556      -2.75330007      -0.07404566
H        1.56581298      -1.22853231      -0.34781459
H        4.58384998      -1.48502759       0.19270433
H        3.08300819      -0.77387857      -2.39557784
H        3.96408806      -2.29518168      -2.07024452
H        4.85303190      -0.76792688      -2.20192634
H        3.31277430       0.51423989       0.94661687
H        5.37478153       1.04625760      -1.06186782
H        5.68572213       0.66874144       0.65438352
H        4.22593445       3.09439929      -0.52822877
H        5.77707175       3.06074999       0.34247479
H        3.11060229       2.78565221       1.48566719
H        4.37272973       3.67210084       2.01040728
