15
Properties=species:S:1:pos:R:3 -1489.3349922364166=T 11.275602=T 11.51498=T -9.0162=T -7.1839=T -9.997=T 0.5832=T -1.088=T -0.265=T 9.32376=T 0.82684=T 4.076411708=T 5.8431378164=T 0.31143204=T pbc="F F F"
C        0.91950503      -0.13982024       0.03123052
N        2.36863455      -0.15082112       0.15232695
N        3.00649719      -1.34464924       0.54762067
C        3.10717211       0.99922666      -0.11111970
O        2.54429492       2.04329736      -0.45435237
C        4.58785747       0.88756248       0.04619943
C        5.36134317       1.95579287      -0.18592502
H        0.61488499       0.86211285      -0.28982260
H        0.44880907      -0.37636152       0.99968502
H        0.58924440      -0.88273256      -0.71316589
H        2.76335227      -2.08453095      -0.12118663
H        2.63575423      -1.62932254       1.46165181
H        5.00129098      -0.07254172       0.35105369
H        4.90978030       2.90256507      -0.48975454
H        6.44517933       1.90497261      -0.07817135
