15
Properties=species:S:1:pos:R:3 -1633.3131831554765=T 15.261391=T 14.35338=T -8.1971=T -6.331=T -7.941=T -0.1024=T -1.5701=T -0.158=T 7.41847=T 0.73717=T 3.9843769002=T 4.166487537=T 0.58157954=T pbc="F F F"
C        0.88726738       0.36177384      -0.28644847
C        2.34075784       0.08274108       0.01606149
C        2.85752064      -1.13846914       0.34712682
C        2.13344287      -2.38133011       0.47051562
C        2.71795054      -3.55168248       0.80474319
C        3.20726114       1.20755980      -0.06098591
C        3.90204364       2.20596691      -0.13870142
H        0.49447718       1.12128692       0.40554278
H        0.26265253      -0.53440535      -0.20755901
H        0.78206962       0.77050012      -1.30238668
H        3.93341896      -1.18744605       0.54027542
H        1.05618264      -2.37324941       0.28268017
H        3.79051948      -3.61415044       1.00257152
H        2.14101295      -4.47241812       0.88843903
H        4.52921259       3.07124241      -0.20365456
