15
Properties=species:S:1:pos:R:3 -1580.4109653464257=T 12.793602=T 13.79407=T -8.9387=T -6.8655=T -8.612=T 0.5064=T -1.0215=T 0.561=T 8.1037=T 0.00292999999999=T 3.8430948532=T 5.9026882922=T 0.463424746=T pbc="F F F"
C        0.99074851       0.01398641       0.19913501
C        2.49183350      -0.06405002       0.03560884
C        3.15127519      -1.23504282      -0.09505554
C        3.19008443       1.18013101       0.03549688
C        3.72541824       2.27711701       0.06249402
C        4.37674152       3.58177241       0.03432539
O        3.67676018       4.55921195      -0.75254003
H        0.73046876       0.50297198       1.14940626
H        0.54194102      -0.98721060       0.18008960
H        0.54385674       0.61775263      -0.60441752
H        2.61105632      -2.18248787      -0.08002987
H        4.23415899      -1.26612552      -0.21149820
H        5.41936739       3.46389798      -0.31734121
H        4.42468646       4.00342974       1.05071733
H        3.47574275       4.14489570      -1.61093096
