15
Properties=species:S:1:pos:R:3 -1567.961916475188=T 11.914657=T 13.04976=T -8.7396=T -6.6768=T -9.02=T 0.916=T 0.0172=T 1.059=T 8.59335=T -0.50095=T 4.3555413898=T 10.7407459982=T 0.86509845=T pbc="F F F"
C        3.65885771      -0.99709962       0.27802409
O        2.66585857       0.02999969       0.34161366
C        3.11574304       1.30928923       0.20446396
C        4.37759858       1.73506581       0.02985309
C        4.70575948       3.20511163      -0.09743060
C        5.37006050       3.54172711      -1.35688745
C        5.93042887       3.80978788      -2.40001998
H        3.12306989      -1.94460756       0.40088058
H        4.39908075      -0.87988779       1.08670782
H        4.17635670      -0.98406838      -0.69512802
H        2.27408042       2.00519813       0.25800835
H        5.21321626       1.03780951      -0.03823615
H        5.35986310       3.52324171       0.73454965
H        3.78371817       3.80290540      -0.00365278
H        6.42067794       4.04636725      -3.32197623
