19
Properties=species:S:1:pos:R:3 -1879.3206451211977=T 12.402182=T 13.57114=T -9.3803=T -7.2099=T -9.149=T 1.1196=T -0.0814=T 1.285=T 8.62324=T -0.66294=T 6.263214783=T 0.405554343=T pbc="F F F"
C        0.76451241       0.61576924       0.71993676
C        2.25576522       0.75052952       0.77150520
C        3.02855781       1.22165794      -0.22114735
C        4.52062378       1.37307424      -0.13750754
C        4.97045376       2.84272341       0.05253531
C        4.64700182       3.73899241      -1.14410688
O        4.43573187       3.38084094       1.26987208
H        0.45828721      -0.43660762       0.83581197
H        0.35616612       0.98926733      -0.22980857
H        0.28530405       1.17020934       1.54277513
H        2.74366985       0.41371356       1.69524075
H        2.54254622       1.54671878      -1.14946250
H        4.99664156       0.97764779      -1.05074165
H        4.90389823       0.79111449       0.71479540
H        6.06253562       2.83939157       0.20604220
H        3.56371556       3.78416323      -1.33078006
H        5.13894071       3.37158095      -2.05785110
H        4.99822047       4.76108020      -0.94863126
H        3.48769775       3.14206270       1.28311210
