12
Properties=species:S:1:pos:R:3 -1266.4496363766068=T 10.071231=T 10.74536=T -9.1554=T -6.9989=T -9.635=T 1.1288=T -0.0109=T 1.068=T 9.14773=T -0.56883=T 4.4198901238=T 10.7714945262=T 0.690274249=T pbc="F F F"
C        2.87581443      -1.26388124      -0.24911131
C        2.31534379      -0.07551482       0.02309120
O        2.92134716       1.13966886       0.16201642
C        4.35162257       1.13185533      -0.00881872
C        4.86924683       2.47935019       0.15721361
C        5.34748651       3.58538799       0.28717272
H        2.22839236      -2.13500992      -0.32374689
H        3.94241198      -1.41644297      -0.40145198
H        1.23953025       0.03992303       0.17015459
H        4.60037525       0.74785223      -1.01531479
H        4.80755340       0.45179266       0.73407950
H        5.75866547       4.56746866       0.40375566
