19
Properties=species:S:1:pos:R:3 -1774.7059550125307=T 11.455126=T 12.36296=T -8.1955=T -6.2158=T -9.682=T 1.0006=T 0.0937=T 3.452=T 8.87947=T -3.2332=T 7.722220038=T 12.189559604=T 0.119189077=T pbc="F F F"
C        1.00325812      -0.17975303       0.64308002
C        2.48826248      -0.00367051       0.95450306
N        3.02071690       1.30619537       0.55690155
C        2.47535667       2.37458896       1.39069916
C        4.48958768       1.33420040       0.59858177
C        5.15625376       0.49798208      -0.49183789
H        0.69433559      -1.21155539       0.86377141
H        0.80823051       0.02094528      -0.42002449
H        0.36550209       0.48572520       1.24103570
H        3.04853476      -0.77284408       0.40416096
H        2.67221671      -0.19160895       2.03972122
H        1.38290116       2.41905272       1.29284400
H        2.87908328       3.34153999       1.05869113
H        2.72039689       2.24876698       2.47087718
H        4.87148015       1.02533694       1.60083694
H        4.79026226       2.38555176       0.46518766
H        4.99373614      -0.58065519      -0.35846195
H        6.24279404       0.66537608      -0.47799879
H        4.77266082       0.78311538      -1.48179865
