9
Properties=species:S:1:pos:R:3 -1108.649341471042=T 9.34129=T 9.44311=T -9.9876=T -7.9982=T -9.296=T -0.3522=T -2.1645=T -1.21=T 8.88484=T 1.66357=T 3.9689406432=T 0.250847024=T pbc="F F F"
N        0.98652299      -0.07593359       0.00514286
C        2.15253619      -0.00270172       0.00137471
C        3.56781850       0.07906377      -0.00319037
N        4.31364183       1.15429544      -0.00745313
C        5.60801836       0.66853824      -0.01063531
C        5.58026206      -0.69738424      -0.00809607
O        4.27387079      -1.10314685      -0.00327374
H        6.46771062       1.33069770      -0.01450394
H        6.32879866      -1.48083874      -0.00903500
