14
Properties=species:S:1:pos:R:3 -1417.904530811549=T 10.016685=T 11.05289=T -10.1934=T -7.8303=T -9.995=T 1.0281=T -0.1168=T 2.077=T 9.59617=T -1.68835=T 4.3765694154=T 10.7883442236=T 0.412311726=T pbc="F F F"
C        0.92642558      -0.04110668      -0.05806301
C        2.45207297      -0.00940524       0.00859478
C        3.01446417       1.42563551       0.04200661
O        2.53001942       2.17667807       1.17314390
C        4.47835991       1.42653140      -0.01095917
C        5.69248348       1.40159369      -0.00679772
H        0.55637137      -1.07542443      -0.03940234
H        0.55990261       0.42884915      -0.98348822
H        0.48437630       0.49830726       0.79036239
H        2.89023185      -0.52547613      -0.86065940
H        2.81551704      -0.54213490       0.90327878
H        2.62813560       1.97546867      -0.83425539
H        3.04789552       1.89056830       1.94793131
H        6.76351417       1.39560534      -0.01256250
