18
Properties=species:S:1:pos:R:3 -1771.9916711675212=T 11.937086=T 13.2476=T -9.1012=T -6.8778=T -8.999=T 1.0264=T 0.1511=T 1.473=T 8.48248=T -0.84488=T 6.302146387=T 0.415727641=T pbc="F F F"
C        1.39531314      -0.76435643       0.28463671
C        2.89211992      -0.49594759       0.12068266
C        3.21767768       0.99495636      -0.08003985
C        4.68772019       1.26972136      -0.20844479
C        5.28515547       1.79991373      -1.28471126
C        6.75378901       2.06302384      -1.42264117
H        1.19420154      -1.83567869       0.42959852
H        0.83206628      -0.43656472      -0.60262693
H        0.98616722      -0.22673526       1.15398183
H        3.28372414      -1.06383844      -0.73938836
H        3.43498228      -0.86778441       1.00634375
H        2.81186261       1.55745844       0.78138596
H        2.69139421       1.37039635      -0.97403099
H        5.30928767       0.99429674       0.65431880
H        4.66094850       2.07132925      -2.14579246
H        7.30441586       1.77193386      -0.51696387
H        6.95213163       3.12970039      -1.61572414
H        7.17932266       1.50800523      -2.27456440
