13
Properties=species:S:1:pos:R:3 -1328.8735867055652=T 10.900201=T 11.0808=T -8.7631=T -6.8876=T -9.924=T 0.5527=T -1.2133=T -0.364=T 9.21679=T 0.92665=T 3.7751381266=T 10.8020074808=T 0.259361869=T pbc="F F F"
C        0.83437638      -0.09623814      -0.14650368
N        2.25964960      -0.00248604       0.11257307
N        2.96590420      -1.23193045       0.05419319
C        3.01529945       1.14371170       0.07849873
O        4.25458710       1.11664093       0.13306755
C        2.28702584       2.39291418      -0.02650721
C        1.79018458       3.49894173      -0.10298682
H        0.40697185       0.91176476      -0.14751000
H        0.34450483      -0.68928407       0.64061947
H        0.65774623      -0.58244460      -1.11726046
H        2.92736247      -1.65104127       0.99334210
H        3.94791369      -0.94369750      -0.07808120
H        1.35265377       4.47439878      -0.17278474
