20
Properties=species:S:1:pos:R:3 -1954.4619052088506=T 12.147983=T 13.32792=T -8.571=T -6.5135=T -10.04=T 0.9071=T -0.0125=T 2.924=T 9.31893=T -2.63017=T 8.2696678224=T 10.6184958022=T 0.128493893=T pbc="F F F"
C        0.97011171       0.01720489      -0.02617220
C        2.49566366       0.00560491       0.03777754
C        3.11825636       1.11192525       0.91171046
N        4.48652098       0.67284993       1.22466902
C        4.37028139      -0.79086065       1.41321689
C        3.10377256      -1.28884677       0.64110945
C        3.39766324      -2.37276012      -0.39634626
H        0.58269099      -0.81430570      -0.63391429
H        0.59162120       0.95136068      -0.46814498
H        0.53772451      -0.07614283       0.98294366
H        2.89657043       0.12595628      -0.98688579
H        2.54921786       1.20550182       1.85579910
H        3.12634359       2.10175590       0.43268631
H        5.06930429       0.84670736       0.40130579
H        5.29121962      -1.28833039       1.07429583
H        4.26422875      -1.00415936       2.48989624
H        2.38228897      -1.69465849       1.37222055
H        4.14738246      -2.02365484      -1.12490370
H        2.49284613      -2.65351012      -0.95748272
H        3.78868129      -3.28698774       0.07522910
