18
Properties=species:S:1:pos:R:3 -1737.170408067909=T 11.414123=T 13.07238=T -8.9301=T -6.7184=T -10.304=T 0.943=T 0.0051=T 2.837=T 9.60048=T -2.57346=T 8.1258440624=T 11.1765195924=T 0.202469682=T pbc="F F F"
C        1.11201304      -0.17519565      -0.55966691
N        2.57181395      -0.10495080      -0.54497058
C        3.06908111       0.92761625       0.36628388
C        4.57527645       1.01970951       0.30038939
O        5.22123182       1.73719835       1.37282874
C        5.45797209       0.31090658       1.24026866
C        6.85674540      -0.11163394       0.88312857
H        0.78631423      -0.91577933      -1.30317526
H        0.61267830       0.79147463      -0.78379638
H        0.75392216      -0.51262867       0.42551325
H        2.90326614       0.09935489      -1.49173458
H        2.77381751       0.66149226       1.39478309
H        2.63763359       1.93383824       0.16240297
H        4.98699878       1.25090498      -0.69421940
H        4.96316411      -0.28322360       2.02041231
H        7.26067027       0.51614818       0.07743046
H        6.86473479      -1.16065246       0.55050747
H        7.52283626      -0.02682942       1.75399434
