18
Properties=species:S:1:pos:R:3 -1796.8248382546237=T 12.434753=T 13.59435=T -8.7029=T -6.6886=T -9.008=T 0.8988=T -0.0447=T 1.413=T 8.40714=T -0.76371=T 6.2718442086=T 0.414025118=T pbc="F F F"
C        1.02414078      -0.10453506      -0.02014756
C        2.53169201      -0.07204916      -0.01064496
N        3.30904691      -0.58905812      -1.15594725
C        3.29964441       0.86709175      -0.89364862
C        4.56982103       1.52053426      -0.45678777
C        4.43550096       2.97010044      -0.07124876
C        5.72856829       0.84705736      -0.39894273
H        0.60875767       0.56571907       0.74758921
H        0.65046454      -1.11925136       0.18653608
H        0.62611444       0.21249406      -0.99639900
H        3.00192044      -0.31652021       0.94834380
H        2.67012132      -0.79261294      -1.93262143
H        2.67034126       1.48882395      -1.54446146
H        4.05908890       3.57180106      -0.91517044
H        5.39746185       3.39154709       0.24803017
H        3.71221869       3.09604870       0.75139951
H        5.77077330      -0.20225832      -0.69334794
H        6.64441321       1.33058743      -0.05492085
