20
Properties=species:S:1:pos:R:3 -1881.156782569076=T 11.968196=T 12.99443=T -8.6913=T -6.704=T -9.854=T 0.8933=T -0.0245=T 3.199=T 9.02211=T -2.9412=T 7.6753161342=T 11.0890846652=T 0.144288121=T pbc="F F F"
C        1.03096259      -0.33500732       0.11711972
C        2.44235462      -0.13731428       0.66348145
N        3.02454335       1.17506407       0.33636288
C        2.37351437       2.25777424       1.07337727
C        4.48382549       1.18491103       0.53326355
C        5.18158406       0.53831404      -0.66550867
O        4.71259751       1.11680347      -1.87891221
H        0.69154930      -1.36002787       0.32244160
H        1.01007271      -0.17709404      -0.97058836
H        0.30347638       0.34744005       0.57755282
H        3.09772027      -0.90722324       0.23075400
H        2.44951821      -0.29786639       1.76547800
H        1.30446754       2.29806079       0.82669495
H        2.81915377       3.21860833       0.78272058
H        2.47003799       2.14527271       2.17522048
H        4.78862773       0.69212095       1.48207167
H        4.80246281       2.23680392       0.58827091
H        5.02537935      -0.55916059      -0.66617172
H        6.26671115       0.71220864      -0.60094862
H        3.76450081       1.29756148      -1.68975030
