20
Properties=species:S:1:pos:R:3 -1937.324147206798=T 12.414258=T 13.93001=T -9.22=T -6.8886=T -10.63=T 0.9564=T 0.0173=T 3.112=T 9.98671=T -2.80271=T 8.763082508=T 11.7412138294=T 0.294525176=T pbc="F F F"
N        1.45569473       2.18807782       2.04727707
C        2.87326526       2.09860841       1.66152415
C        2.99964251       1.84218368       0.15930405
C        4.44380377       1.73712848      -0.35279391
C        5.24784533       3.01793900      -0.23359782
C        6.09888081       3.29846738       0.98502958
C        6.75420116       2.97977439      -0.33978753
H        1.37692559       2.39439982       3.04562896
H        1.00275446       1.27999195       1.90949846
H        3.44040468       1.31441077       2.20781885
H        3.34765308       3.06037693       1.91126103
H        2.46599834       2.64437811      -0.37757206
H        2.46921409       0.90435843      -0.08528265
H        4.41739637       1.43107297      -1.41276329
H        4.97324254       0.92917746       0.18403884
H        4.76789971       3.89311318      -0.68352768
H        6.13461753       2.53300108       1.76244063
H        6.15804841       4.32225033       1.35671552
H        7.25896199       3.78600980      -0.87297549
H        7.22577964       2.00125001      -0.44917671
