15
Properties=species:S:1:pos:R:3 -1543.2601518480074=T 11.234952=T 11.58674=T -9.0318=T -7.0176=T -9.595=T -0.1621=T -1.8851=T -0.909=T 9.12557=T 1.53633=T 3.2965025722=T 4.7499780516=T 0.419642659=T pbc="F F F"
C        0.91488870       0.79526591      -0.26559617
O        2.14175176       0.90464495       0.48923774
C        2.98763968       1.93691974       0.16463679
C        2.46941495       3.31774475       0.06783537
O        1.31681980       3.65919162       0.30907704
C        4.31278018       1.64853685       0.06493602
C        5.47112152       2.57294767      -0.11758168
H        0.46647761      -0.15288232       0.05271145
H        1.12987805       0.75101773      -1.34585301
H        0.23683466       1.63008105      -0.05087414
H        3.22481583       4.07228699      -0.25569730
H        4.56265572       0.58841029       0.18194147
H        5.19475429       3.62533651      -0.24024287
H        6.06330046       2.26826352      -0.99510140
H        6.15043681       2.50125474       0.74788069
