17
Properties=species:S:1:pos:R:3 -1601.3737578525197=T 14.335872=T 14.63717=T -7.5531=T -5.8417=T -8.552=T 0.8878=T -0.5285=T -0.105=T 7.66267=T 0.9019=T 3.0357724128=T 10.854230384=T 0.675846728=T pbc="F F F"
C        3.83428269      -0.71802476       1.37830431
N        3.76307533      -0.24068780      -0.01162269
C        4.19653903       1.04471204      -0.34128305
S        3.17026261       2.10249582      -1.16059012
N        5.47913198       1.35236066       0.02301356
C        6.51273846       0.32997082       0.17573395
C        5.97952454       2.71354832      -0.12525699
H        3.30027917      -1.67419652       1.43613306
H        3.37072480      -0.00865657       2.08505132
H        4.86880368      -0.89824034       1.69464891
H        2.82918057      -0.35437773      -0.40470679
H        6.11793395      -0.64522290      -0.12830266
H        6.88546092       0.27346935       1.21198363
H        7.36212165       0.57960790      -0.47970284
H        5.15216310       3.41906111       0.00145192
H        6.41628757       2.87173207      -1.12581134
H        6.75179995       2.88997852       0.63703582
