13
Properties=species:S:1:pos:R:3 -1430.497338057121=T 9.055436=T 10.0167=T -9.9176=T -7.8367=T -11.213=T 0.7533=T -0.131=T 0.28=T 10.21301=T 0.36183=T 4.4302801506=T 12.1520290418=T 0.294614594=T pbc="F F F"
O        1.15631022      -0.10098161       0.12290199
C        2.35358907       0.02203464       0.06199045
O        3.25474011      -1.03708495       0.10844004
C        4.54184739      -0.31694592      -0.00468334
C        4.26130632       0.67982153      -1.14933639
C        3.26196370       1.23871149      -0.07574172
C        4.35265774       0.85261257       0.98477374
H        5.35918060      -1.04374890       0.01909665
H        3.85046478       0.27571127      -2.08380890
H        5.09545830       1.36713401      -1.34001975
H        2.76966626       2.21279123      -0.13351448
H        5.19526544       1.55585361       0.99111593
H        4.02551006       0.60653102       2.00347579
