17
Properties=species:S:1:pos:R:3 -1666.75611894583=T 10.748477=T 12.43295=T -9.935=T -7.6558=T -11.612=T 0.9954=T 0.0783=T 2.799=T 11.1407=T -2.53683=T 9.2393995242=T 10.8557554118=T 0.270368629=T pbc="F F F"
C        1.23124718       2.81122125      -0.47291165
O        2.51292633       2.80391736       0.14009555
C        3.31918941       1.73124812      -0.33657439
C        4.61528196       1.73563565       0.43511258
O        5.67325521       0.93651135      -0.13299444
C        5.83378498       2.37783208      -0.08528839
C        6.91621262       2.90836104       0.81422753
H        0.67482031       3.65550802      -0.04717520
H        0.67999475       1.87377556      -0.26917165
H        1.30574043       2.94276909      -1.56912735
H        3.52782238       1.83570741      -1.42006038
H        2.79935498       0.76248578      -0.18729005
H        4.50744004       1.64563978       1.52396625
H        5.75508831       2.85249316      -1.07275900
H        6.90453053       2.39374453       1.78411779
H        6.77470373       3.98582077       0.98565237
H        7.90560685       2.76356906       0.35755042
