15
Properties=species:S:1:pos:R:3 -1452.9548350166212=T 11.086834=T 12.58909=T -10.2168=T -8.3079=T -10.29=T 0.7213=T -0.2138=T 0.043=T 9.93936=T 0.36038=T 5.2759886566=T 10.9727857972=T 0.127035593=T pbc="F F F"
C        3.95970278      -1.16976895      -0.47173333
S        2.77359553       0.01201246       0.18922775
O        1.70654095       0.18315222      -0.81350845
O        2.46218779      -0.39453309       1.56835212
C        3.71644352       1.53224818       0.25699757
C        3.89889739       2.34163356      -1.00359711
C        2.94781775       2.81600492       0.06146498
H        4.80006336      -1.25338194       0.22637807
H        4.28291954      -0.83622572      -1.46343569
H        3.42269217      -2.12338610      -0.53915694
H        4.50461125       1.49145252       1.00967502
H        3.45156630       1.94571534      -1.91602793
H        4.85505221       2.85040901      -1.12695551
H        3.23287636       3.65391392       0.69633036
H        1.88264309       2.72207367      -0.15043093
