13
Properties=species:S:1:pos:R:3 -1403.0758622480275=T 11.040642=T 11.25874=T -9.1931=T -7.1631=T -9.672=T -0.3572=T -2.176=T -0.925=T 9.88493=T 1.49215=T 3.418479999=T 6.3273031464=T 0.418525886=T pbc="F F F"
C        3.59635319      -0.64031387       0.15827712
C        4.70795947      -0.04854391      -0.28131535
O        4.91532295       1.30522608      -0.10726911
C        6.21533921       1.75719014      -0.02342546
C        7.31313424       1.02720056       0.24210986
C        6.26293168       3.23171034      -0.25155647
O        7.28168469       3.89908978      -0.22472261
H        3.42560028      -1.69102342      -0.06520492
H        2.84607963      -0.09256604       0.72724126
H        5.49206823      -0.56048235      -0.84704951
H        7.28774157      -0.03802350       0.45980012
H        8.26700835       1.55202591       0.25671432
H        5.26111651       3.68418026      -0.45416926
