12
Properties=species:S:1:pos:R:3 -1319.8246636597023=T 9.319484=T 10.09163=T -8.4063=T -6.3271=T -8.407=T 0.7452=T -0.3328=T 0.253=T 8.09665=T 0.42312=T 4.2721608048=T 11.8270741344=T 0.278243839=T pbc="F F F"
C        1.02192313      -0.02764669      -0.00481646
C        2.49926701       0.09731637      -0.00604926
N        3.23999730       1.16502246      -0.00684883
C        4.55881489       0.70369950      -0.00913187
C        4.53287491      -0.66005372      -0.00949910
O        5.43516169      -1.66657792      -0.01085810
O        3.23692906      -1.08457551      -0.00760294
H        0.59021171       0.97851259       0.00532245
H        0.66705851      -0.57798767       0.87872361
H        0.66394426      -0.56088733      -0.89765749
H        5.41127232       1.37468138      -0.01018998
H        6.32548521      -1.27302345      -0.01162205
