19
Properties=species:S:1:pos:R:3 -1865.3056387375862=T 12.461784=T 13.68807=T -9.4809=T -7.2508=T -9.431=T 0.9825=T 0.0515=T 1.453=T 8.88598=T -0.89001=T 6.6783447082=T 0.463982569=T pbc="F F F"
C        1.43106291       2.01997651       2.84104806
O        2.65754062       2.55091620       2.35940609
C        2.86090835       2.35774015       0.94939442
C        2.00018971       3.30349204       0.11068706
C        4.35981625       2.57471299       0.69213775
C        5.24028032       1.57254008       1.37902064
C        6.14568097       0.80230264       0.76483700
H        1.45893068       2.10164840       3.93548143
H        1.31600418       0.95490556       2.56292563
H        0.55121028       2.57682801       2.47021974
H        2.60406992       1.30675264       0.69948003
H        2.25975939       4.35003956       0.32797361
H        0.92984238       3.16276622       0.31271370
H        2.16045477       3.11918144      -0.96125275
H        4.60353457       3.59192507       1.04941688
H        4.54206356       2.55754809      -0.39393970
H        5.10445145       1.48860367       2.46202233
H        6.30845569       0.86063768      -0.31516339
H        6.75992401       0.09143304       1.31986146
