15
Properties=species:S:1:pos:R:3 -1506.0969114088907=T 10.190887=T 10.8625=T -8.5096=T -6.5641=T -9.863=T 0.7438=T -0.246=T 0.593=T 9.5951=T 0.09906=T 4.4268457384=T 5.7258718576=T 0.123368149=T pbc="F F F"
C        1.12706267      -0.00186229       0.14050742
N        2.55550148      -0.03649017      -0.05882270
N        3.28068484       1.19636850      -0.15773817
C        4.51297978       0.79605475      -0.89396726
C        4.73313347      -0.67979786      -0.55880620
C        3.30374161      -1.16762148      -0.28589861
O        2.88237574      -2.32122958      -0.28371445
H        0.77111225      -1.03687549       0.06596493
H        0.64825428       0.62105769      -0.62893542
H        0.86733555       0.39693169       1.13440640
H        3.55977640       1.44372550       0.80431204
H        4.31693456       0.92177093      -1.97022844
H        5.33642719       1.46309642      -0.60923966
H        5.18239670      -1.26781268      -1.36722285
H        5.33712346      -0.82882595       0.35126294
