10
Properties=species:S:1:pos:R:3 -1040.8232618578572=T 7.077673=T 7.38726=T -9.5873=T -7.5076=T -10.727=T 0.7991=T -0.1424=T 0.622=T 9.78101=T 0.0267=T 4.4434474638=T 14.4556889218=T 0.293505457=T pbc="F F F"
O        1.18641015      -0.12564340       0.60072789
C        2.32290418      -0.03374410       0.18359714
C        3.32153545       1.11702000      -0.11125091
C        4.30725221       0.00260793      -0.55695176
N        3.25329164      -0.97023103      -0.22649739
H        3.61849388       1.68515189       0.77838102
H        2.98967597       1.80141767      -0.90106794
H        4.57886157       0.02071410      -1.62271905
H        5.21246261      -0.09313802       0.06041918
H        3.21082234      -1.98651505      -0.28464818
