13
Properties=species:S:1:pos:R:3 -1424.9336293513593=T 9.146247=T 9.97071=T -9.3626=T -7.2979=T -10.753=T 0.7253=T -1.1483=T -0.042=T 9.84259=T 0.74698=T 3.7087436236=T 7.7467940632=T 0.162777266=T pbc="F F F"
O        1.83221297       0.19953932       1.37031757
C        2.54488908      -0.03405117       0.41169919
C        2.78376767      -1.40003254      -0.24497757
C        4.16352557      -1.29810731      -0.92984022
C        4.39365306       0.19394421      -1.10832008
O        3.28838317       0.85743438      -1.74057555
C        3.42456683       0.96745900      -0.29659504
H        1.97672003      -1.57245084      -0.97263887
H        2.71784560      -2.19065328       0.51181443
H        4.95387380      -1.70866701      -0.28248146
H        4.21261753      -1.82785439      -1.89165892
H        5.38192024       0.59746473      -1.34543772
H        3.59701445       1.96641489       0.10899425
