13
Properties=species:S:1:pos:R:3 -1401.6821082859171=T 10.108127=T 10.72271=T -9.7897=T -7.7004=T -10.204=T -0.3307=T -2.1164=T -1.065=T 9.95264=T 1.64796=T 3.423997376=T 5.242810003=T 0.438990621=T pbc="F F F"
C        1.02849523       0.09616256      -0.23469290
C        2.34866560      -0.12424678      -0.08633843
C        2.82243172      -1.50953770       0.13625731
O        3.99300964      -1.82254961       0.29954802
C        3.37376049       0.95505265      -0.10906654
C        3.66060598       1.72268256      -1.34105654
O        2.89859820       2.30355507      -0.26743962
H        0.63580481       1.10368642      -0.37527045
H        0.32382510      -0.73755225      -0.21125962
H        2.00767783      -2.27788094       0.14838083
H        4.19370730       0.82894614       0.60601675
H        3.08981587       1.49323507      -2.24687206
H        4.66080224       2.14258681      -1.48761677
