12
Properties=species:S:1:pos:R:3 -1309.1829660459143=T 9.589601=T 9.93728=T -7.6829=T -5.6631=T -7.982=T 0.8415=T -0.2189=T 0.418=T 7.53671=T 0.09696=T 4.223335118=T 6.2305320734=T 0.362584176=T pbc="F F F"
N        0.90282950       0.00363410      -0.25229889
C        2.29708934      -0.00396529      -0.04982064
C        3.11844440       1.08053140       0.11775664
O        2.82388869       2.39399577       0.30378882
O        4.44172109       0.69525900       0.19139132
C        4.44431074      -0.67162437       0.06005075
C        3.17207752      -1.14538188      -0.08808454
H        0.49351903       0.89702787       0.02221023
H        0.43613310      -0.74299204       0.26261238
H        3.17576372       2.91959735      -0.44069373
H        5.41854941      -1.14540159       0.08427149
H        2.88325346      -2.18370032      -0.22346384
