12
Properties=species:S:1:pos:R:3 -1314.0401669974674=T 10.334541=T 10.22271=T -9.4276=T -7.5404=T -9.937=T -0.7273=T -2.5219=T -1.461=T 9.37236=T 2.00022=T 3.3906823378=T 4.6440940076=T 0.300810291=T pbc="F F F"
C        0.75024681       0.21188733      -0.04272236
C        2.07756805      -0.04788494      -0.06149510
N        2.72864874      -1.27559454      -0.11882971
C        2.17196445      -2.53650536      -0.17121066
O        2.83125294      -3.56200413      -0.22009560
C        3.01788111       1.10266169      -0.01647765
O        4.23222285       0.97034266      -0.02850686
H        0.43194770       1.25246907       0.00439936
H       -0.02681033      -0.54858684      -0.07194904
H        3.75266796      -1.21373881      -0.12153167
H        1.06122294      -2.52768119      -0.16602093
H        2.52879678       2.10307505       0.03023023
