15
Properties=species:S:1:pos:R:3 -1522.5278324847902=T 12.899052=T 12.94644=T -8.8478=T -6.907=T -9.345=T 0.5255=T -1.1126=T 0.229=T 8.91406=T 0.45662=T 4.4424555758=T 5.5351317952=T 0.78785174=T pbc="F F F"
C        4.40631492      -2.05377793      -0.60041361
N        4.01016474      -0.84660485      -0.78410340
N        4.98564132       0.09408805      -0.37707277
C        4.57305371       1.30135226      -0.57068076
C        5.40344704       2.45553189      -0.23158591
C        5.31382010       3.70073446      -1.11115674
C        4.72110551       3.72973729       0.26057766
H        3.72290285      -2.85804536      -0.88364824
H        5.39197006      -2.29201844      -0.17567893
H        3.57439216       1.48220145      -1.00472802
H        6.37809991       2.21452134       0.19379438
H        4.63742327       3.65829268      -1.96558601
H        6.24718247       4.23321922      -1.29262952
H        5.23752588       4.28358170       1.04444535
H        3.63496605       3.70815624       0.35486653
