18
Properties=species:S:1:pos:R:3 -1768.5839991193477=T 10.981719=T 12.21354=T -10.4919=T -8.205=T -11.787=T 1.0051=T 0.1137=T 3.067=T 11.5355=T -2.79819=T 10.046275615=T 10.467022106=T 0.141396688=T pbc="F F F"
C        2.29210237      -0.49189340      -1.47364884
C        2.47364836       0.03271564      -0.04653654
C        3.23581343       1.34916753       0.02166945
C        2.57660416       2.64900720      -0.52862706
C        3.22283727       3.42546047       0.64968863
C        3.38954881       2.07192549       1.39049979
H        1.73301275      -1.43862774      -1.48554910
H        3.26442205      -0.67191070      -1.95766925
H        1.74024323       0.22853535      -2.09631913
H        3.00266185      -0.72228382       0.56088194
H        1.48510480       0.17044805       0.42660165
H        4.23219602       1.22534599      -0.43899960
H        1.48081728       2.60301507      -0.42061720
H        2.81723516       2.96518722      -1.55320277
H        4.19655336       3.85074526       0.36537008
H        2.62668607       4.20898643       1.13723011
H        4.31064723       1.90209593       1.96567726
H        2.52427580       1.86320004       2.03965059
