13
Properties=species:S:1:pos:R:3 -1417.3417949660852=T 9.823095=T 10.34057=T -9.2715=T -7.0574=T -9.495=T 0.643=T -1.2917=T -0.21=T 9.0918=T 0.84937=T 3.6346743872=T 5.532813257=T 0.171936842=T pbc="F F F"
O        1.68983978      -0.26595179      -1.17672477
C        2.03919392       0.28715043      -0.15439235
C        3.20635227       1.27843013      -0.07493328
O        3.73116166       1.31471930       1.25868388
C        3.60718161       2.64855139       1.80012595
C        2.93343524       3.44371402       0.72460092
C        2.71737288       2.67749860      -0.34923537
H        1.51867916       0.13446187       0.82584121
H        3.98314278       0.95075303      -0.79225301
H        4.61218139       3.03967527       2.04796286
H        3.02194393       2.61121983       2.73692844
H        2.68826391       4.50051734       0.82312093
H        2.25533149       2.96728058      -1.29097542
