13
Properties=species:S:1:pos:R:3 -1359.3063786214414=T 9.492723=T 10.2659=T -8.4883=T -6.3958=T -9.302=T 1.013=T 0.1586=T 0.767=T 8.90721=T -0.25806=T 5.8061031982=T 0.234224122=T pbc="F F F"
C        2.05026513      -0.17726585      -0.09085912
C        0.65950052      -0.75637846       0.14912281
O       -0.41479956      -1.40374176      -0.54040259
C       -1.45667038      -0.49700139      -0.26544848
C       -1.33133151       0.76343543       0.24275739
O       -0.13266237       1.46814923       0.46606567
C        0.77587446       0.64203111      -0.26925038
H        2.60982011      -0.28462142      -1.02137756
H        2.66211089      -0.17543733       0.81254215
H        0.49820338      -0.85014261       1.22923221
H       -2.44197794      -0.92368546      -0.44447817
H       -2.21523605       1.35858553       0.46515281
H        0.58456332       0.76754298      -1.34120675
