15
Properties=species:S:1:pos:R:3 -1532.2521578091973=T 11.89987=T 12.95879=T -8.743=T -6.8269=T -9.597=T 0.7894=T -0.1852=T 1.022=T 8.80192=T -0.38308=T 4.399271252=T 10.6712146494=T 0.395233156=T pbc="F F F"
C        1.22349259      -0.50873234      -0.26870473
C        2.73492377      -0.41975362      -0.31636444
N        3.55184779      -1.29755167      -0.79792097
N        3.24607961       0.72478615       0.25953278
C        4.67517677       1.01296082       0.14049334
C        5.01292461       2.27562627       0.78287365
C        5.28718394       3.33491181       1.30701040
H        0.76181322       0.32607683      -0.81745094
H        0.86268111      -0.46739512       0.76916411
H        0.88003318      -1.44600347      -0.72043033
H        3.02996743      -2.11129545      -1.13718581
H        2.63121774       1.52436810       0.37244418
H        4.98608628       1.02971782      -0.92071466
H        5.23589771       0.18299396       0.59985020
H        5.54317424       4.26525994       1.77155322
