20
Properties=species:S:1:pos:R:3 -1940.5385175730535=T 12.403893=T 13.67817=T -8.8121=T -6.8026=T -10.397=T 0.8393=T -0.08=T 2.77=T 9.84535=T -2.44416=T 8.0865281018=T 11.0944160632=T 0.255542906=T pbc="F F F"
C        0.92014227       0.11638278      -0.26006788
C        2.41165138       0.16983147       0.02226145
C        2.71242059       0.02678958       1.50480836
N        3.34327536      -0.57370845      -0.87417686
C        3.34971484       0.91760809      -0.89165077
C        2.83303420       1.63979448      -2.12393198
C        4.62304897       1.55116132      -0.35669865
H        0.67752219       0.17939210      -1.32796965
H        0.39269591       0.93515569       0.25468931
H        0.50426610      -0.83045046       0.12023620
H        3.78602499      -0.05821918       1.70140900
H        2.23237459      -0.88404391       1.89550261
H        2.31682423       0.88394395       2.07181873
H        2.81855901      -0.91215958      -1.68993623
H        1.92815317       1.18614461      -2.54636261
H        3.60627323       1.63312944      -2.90880409
H        2.60743401       2.69373928      -1.89664946
H        5.07293409       0.95748409       0.44567809
H        4.42888205       2.56690507       0.02209880
H        5.36709881       1.63133963      -1.16467436
