18
Properties=species:S:1:pos:R:3 -1742.861371506074=T 11.073509=T 12.15126=T -9.2606=T -7.0927=T -10.428=T 0.8165=T -0.1681=T 2.743=T 9.85702=T -2.43982=T 8.0537710006=T 13.0437239552=T 0.086490863=T pbc="F F F"
C        1.95117478      -0.62562353      -1.33876384
C        2.39256530      -0.00520411      -0.01049962
C        3.20941014       1.28533664      -0.14915517
N        4.46108958       1.02427680      -0.84400773
C        2.32896127       2.52330744      -0.51981531
O        2.31526627       2.96738740       0.86516408
C        3.37501763       2.02596905       1.19930854
H        1.29643128      -1.49090694      -1.16463164
H        2.80503512      -0.98870074      -1.93022700
H        1.38922202       0.09157626      -1.95682342
H        2.99940515      -0.72991667       0.55718445
H        1.50592485       0.22372871       0.60239944
H        4.96516741       1.89752079      -1.01574757
H        4.29026538       0.59628066      -1.75655870
H        1.31058625       2.34464391      -0.90309026
H        2.84929527       3.24798978      -1.17473260
H        4.35303923       2.53173426       1.30116887
H        3.15382308       1.45917028       2.11832747
