18
Properties=species:S:1:pos:R:3 -1809.6772791065016=T 12.034608=T 12.74169=T -8.5405=T -6.4278=T -8.942=T 0.8942=T -0.069=T 1.484=T 8.42209=T -0.83435=T 6.212504509=T 0.347517354=T pbc="F F F"
C        0.81453358      -1.26607161       0.50721152
C        1.71695038      -0.10245380       0.06545107
N        0.95821486       0.99601595      -0.53570467
C       -0.11205161       1.55491705       0.29470809
C       -1.40190152       0.77306824       0.20608240
C       -1.53204034      -0.51790000      -0.13439205
C       -0.40942232      -1.49528351      -0.39581110
H        1.42993427      -2.17869001       0.55088519
H        0.45272502      -1.08957484       1.53303042
H        2.42226179      -0.45688752      -0.70465118
H        2.32551272       0.21534781       0.94152947
H        1.60251733       1.73941882      -0.80620204
H        0.18097917       1.67615863       1.36492116
H       -0.31359874       2.57497325      -0.07055267
H       -2.30879558       1.34606165       0.42467934
H       -2.54690571      -0.92285116      -0.19854588
H       -0.79327656      -2.51299877      -0.22329020
H       -0.10980675      -1.45699016      -1.45787887
