10
Properties=species:S:1:pos:R:3 -993.692697747284=T 8.873334=T 8.20759=T -9.0523=T -6.9867=T -9.572=T 0.4037=T -1.3501=T -0.547=T 9.07363=T 1.01494=T 5.2015722594=T 5.3051625624=T 0.673850545=T pbc="F F F"
O        0.89054587       0.08247470      -0.03049200
N        2.28652800      -0.08105600      -0.12615856
C        2.89602735       1.02424650       0.15196443
C        4.34131489       1.06702856       0.11079994
C        5.05469397       2.17513647       0.38582880
H        0.56549244      -0.80712347      -0.26044507
H        2.33023235       1.92841814       0.41808061
H        4.84082961       0.13329675      -0.16096393
H        4.56673930       3.11349813       0.65825992
H        6.14344621       2.17295023       0.34549586
