12
Properties=species:S:1:pos:R:3 -1233.8808501953656=T 10.153922=T 10.77093=T -10.2641=T -7.9951=T -10.18=T 1.0431=T -0.7754=T 0.054=T 9.76751=T 0.53227=T 4.3746724296=T 10.530378952=T 0.389941126=T pbc="F F F"
O        0.85788424       0.84868548      -0.85395788
N        2.24887602       0.73006989      -1.01249766
C        2.90042559       1.20112885      -0.02046394
C        4.41366867       1.14382445      -0.09984931
O        4.87407924       0.49377805      -1.27668557
C        4.95002052       2.50912004       0.02757082
C        5.38102728       3.63589193       0.15444339
H        0.51924945       0.44587485      -1.67472970
H        2.42324185       1.65494726       0.85528604
H        4.77121538       0.56175606       0.77399710
H        4.08006617       0.38085825      -1.84099611
H        5.77305558       4.62769489       0.25294281
