13
Properties=species:S:1:pos:R:3 -1368.7445946310627=T 10.035584=T 10.17451=T -9.0048=T -7.0138=T -10.144=T 0.3351=T -1.3858=T -0.46=T 9.43624=T 0.96442=T 4.0707827436=T 5.6988801054=T 0.247693341=T pbc="F F F"
O        0.94160012       0.05898942      -0.33811366
C        2.14902359       0.05831078      -0.08868820
N        2.91193263       1.20802316      -0.13436181
N        4.25042578       1.28287675       0.33632594
C        5.00409787       0.12170018      -0.15461801
C        4.27484482      -1.17375661       0.09080333
C        2.93282040      -1.17726974       0.17888566
H        2.44556076       2.09394284      -0.31782978
H        4.22055630       1.21803595       1.36425282
H        5.98172726       0.13092456       0.34988646
H        5.19817899       0.25424017      -1.23502235
H        4.85091453      -2.10010971       0.17362867
H        2.34790697      -2.08163776       0.34615092
