15
Properties=species:S:1:pos:R:3 -1557.6251564106342=T 10.162065=T 10.8395=T -8.7676=T -6.704=T -9.268=T 1.0068=T -0.0329=T 0.989=T 8.82632=T -0.43558=T 5.9159671928=T 0.238853083=T pbc="F F F"
C        0.94903531      -0.05758285      -0.22295233
C        2.45218137       0.01096386       0.03298858
O        3.05515770       0.19479373      -1.27668422
C        3.00181551      -1.25304585       0.75020097
O        3.97073011      -0.80554717       1.74781653
C        3.78111544       0.54521971       1.86151519
C        2.91057272       1.08495427       0.99213861
H        0.39934381      -0.19180948       0.71717191
H        0.71438169      -0.89394395      -0.89741146
H        0.61110948       0.86991558      -0.70369758
H        3.96195781       0.51655075      -1.12297144
H        3.51053568      -1.93061141       0.05291989
H        2.20844056      -1.79178059       1.29009560
H        4.37497125       1.01629009       2.64379962
H        2.64093155       2.13473331       0.91589013
