14
Properties=species:S:1:pos:R:3 -1493.5754346815147=T 12.116692=T 11.86828=T -8.7391=T -6.8282=T -8.897=T -0.0279=T -1.5995=T -0.373=T 8.29095=T 0.84359=T 4.2421437942=T 4.8809320648=T 0.407553585=T pbc="F F F"
C        2.82419392      -1.08907138       0.39534374
C        2.23768634       0.10219584       0.18943866
C        2.87751357       1.35824543      -0.21559069
C        2.12185574       2.47119375      -0.37451008
N        4.27051753       1.30618239      -0.41105006
C        5.11944078       2.31040530      -0.81688395
O        6.32490924       2.15318071      -0.95337319
H        2.23111941      -1.95104337       0.69855489
H        3.89423198      -1.27169108       0.27719172
H        1.15783579       0.18688961       0.33248114
H        1.05006221       2.40395228      -0.20251757
H        2.51927457       3.43992575      -0.66588259
H        4.73743732       0.41709481      -0.24008846
H        4.60966161       3.27591996      -1.01041356
