15
Properties=species:S:1:pos:R:3 -1484.1879364996016=T 10.702656=T 11.64372=T -9.3616=T -7.1679=T -9.739=T 0.8728=T -0.165=T 2.317=T 9.35897=T -1.92572=T 4.381417268=T 10.673024845=T 0.491835159=T pbc="F F F"
C        0.97096796      -0.13480038      -0.04671089
C        2.49055229      -0.02612418       0.07254920
C        3.00931277       1.43684365       0.03786077
N        2.53774115       2.32104722       1.12133656
C        4.47471850       1.44441042       0.00937423
C        5.68756789       1.40050779       0.00038336
H        0.65453353      -1.18714063      -0.04734053
H        0.60856922       0.32131992      -0.98119353
H        0.45422881       0.35620246       0.79192423
H        2.97000142      -0.57825311      -0.75161233
H        2.83965392      -0.49430813       1.00794221
H        2.65734317       1.89184038      -0.90784449
H        2.85945153       1.95339872       2.02170288
H        1.51528296       2.31222284       1.14447373
H        6.75820488       1.38175303      -0.00992541
