16
Properties=species:S:1:pos:R:3 -1634.553627750453=T 12.362271=T 13.64081=T -8.8799=T -6.7662=T -9.362=T 0.9439=T 0.0396=T 2.269=T 8.99281=T -1.84359=T 4.3026985566=T 9.4709929736=T 0.263340199=T pbc="F F F"
C        2.83131236      -1.11385426      -0.51503609
N        2.36742595       0.12357103       0.12000640
C        3.38113086       1.14374562       0.16453625
C        3.49144272       2.07027428      -1.01351240
C        2.90051772       2.58387995       0.29779157
C        3.62306594       3.51624889       1.11143886
C        4.23834120       4.30589485       1.80162447
H        2.02832014      -1.86265934      -0.48040375
H        3.73786208      -1.55026788      -0.04862210
H        3.06066850      -0.91405899      -1.57203876
H        2.04815747      -0.07725651       1.07102868
H        4.32544756       0.92075449       0.68399810
H        2.78312091       1.92243150      -1.82882738
H        4.47839228       2.43856454      -1.29045591
H        1.81322379       2.69190236       0.29898050
H        4.77830053       5.00311949       2.40831159
