18
Properties=species:S:1:pos:R:3 -1733.8997926014335=T 11.33104=T 12.65338=T -9.0362=T -6.9204=T -10.574=T 1.0509=T 0.098=T 3.276=T 9.87999=T -3.27397=T 8.7081071156=T 12.3025604444=T 0.234606632=T pbc="F F F"
O        2.41733362       1.62433061       3.10551714
C        2.68438300       2.52136378       2.01463113
C        3.12683973       1.68310558       0.82382558
C        3.40557704       2.51275476      -0.42867071
N        4.50909088       3.45713703      -0.21944603
C        5.84607553       2.92971006      -0.51900970
C        5.18788421       3.90518498      -1.43797457
H        2.21085651       2.16181049       3.88816005
H        3.47423567       3.24567740       2.27623170
H        1.77479015       3.09467106       1.74764024
H        2.34015479       0.94584994       0.59724670
H        4.02731787       1.11215154       1.10385191
H        2.51380998       3.10485285      -0.69770473
H        3.61094476       1.83004224      -1.28194222
H        5.91819806       1.89331932      -0.86794832
H        6.64633849       3.25304232       0.15021286
H        5.49951720       4.95196003      -1.45089233
H        4.82585253       3.51334602      -2.39527869
