12
Properties=species:S:1:pos:R:3 -1343.999662477233=T 12.339869=T 12.59944=T -9.4976=T -7.4799=T -9.369=T -0.331=T -1.9619=T -0.735=T 8.91375=T 1.25137=T 3.4011591548=T 6.0499092686=T 0.467736458=T pbc="F F F"
N        1.01426289      -0.04886441       0.00000000
C        2.38665405      -0.07713814       0.00000000
O        3.04251333      -1.11889648       0.00000000
C        3.01246597       1.23387498       0.00000000
C        3.60864053       2.30036973       0.00000000
C        4.36212342       3.49817311       0.00000000
C        3.82824730       4.73543838       0.00000000
H        0.50120221       0.82498027       0.00000000
H        0.51526845      -0.93250004       0.00000000
H        5.45045242       3.37789351       0.00000000
H        2.74859009       4.88927381       0.00000000
H        4.46812935       5.61745528       0.00000000
