14
Properties=species:S:1:pos:R:3 -1448.8207106469695=T 10.084919=T 10.48059=T -9.6157=T -7.5322=T -10.146=T -0.0796=T -1.8743=T -0.868=T 9.77467=T 1.41704=T 3.4155911252=T 5.33077807=T 0.449670547=T pbc="F F F"
C        1.06159567      -0.37087279      -0.09615186
C        2.49480757       0.13654270       0.13674137
C        2.60249117       1.63553571       0.05068135
C        3.14129626       2.30979716      -0.98404356
C        2.08730263       2.44881236       1.18008751
O        1.61610867       1.99102307       2.21111900
H        1.03004556      -1.46760879      -0.03453537
H        0.69428838      -0.07399888      -1.08905529
H        0.37606364       0.03108139       0.66136678
H        3.17978982      -0.31750310      -0.59496018
H        2.82399160      -0.17751293       1.13991146
H        3.56640429       1.80268577      -1.85186350
H        3.17124251       3.40240475      -0.98024010
H        2.17154223       3.55595358       1.02623238
