14
Properties=species:S:1:pos:R:3 -1483.2605593496698=T 10.92041=T 12.24085=T -10.1968=T -7.9219=T -9.72=T 0.8309=T -0.7151=T 0.7=T 9.186=T -0.15989=T 5.3603115352=T 6.3565390452=T 0.43149359=T pbc="F F F"
O        3.25916700      -1.50178062       0.63498576
C        2.93112122      -0.50335225      -0.34550953
C        3.03080070       0.84195454       0.30121421
C        3.77201882       1.84707718      -0.17492232
C        3.85503053       3.21015254       0.47141696
C        3.45786094       4.28837584      -0.43626934
N        3.14727352       5.14063319      -1.16948744
H        3.01231861      -2.36879612       0.27063185
H        1.89603400      -0.64828074      -0.71071781
H        3.60802185      -0.55677918      -1.21782353
H        2.43886103       0.97475609       1.21362854
H        4.36836391       1.70870525      -1.08206996
H        4.88937779       3.41602590       0.79668678
H        3.21986008       3.25455837       1.36913582
