13
Properties=species:S:1:pos:R:3 -1384.7080165787697=T 10.278186=T 10.4818=T -7.5535=T -5.6563=T -8.055=T 0.8327=T -0.1262=T 0.839=T 7.53847=T -0.30834=T 4.714443664=T 6.0074688608=T 0.366127859=T pbc="F F F"
N        0.91488041      -0.22678729      -0.00109886
C        2.33557026      -0.05530156       0.01736262
C        3.14925151       1.06794003       0.12542489
N        4.45125901       0.63151711       0.08666812
C        4.50689159      -0.75025597      -0.04447255
C        3.19542738      -1.18883956      -0.08851666
O        2.74605931      -2.47287733      -0.21116293
H        0.47561256       0.25921734      -0.78500477
H        0.47253468       0.10333957       0.85863696
H        2.90422314       2.12032634       0.22441814
H        5.26378451       1.23170392       0.14365311
H        5.44699419      -1.28589733      -0.09382176
H        1.76737147      -2.38257526      -0.20452631
