13
Properties=species:S:1:pos:R:3 -1403.8379455431593=T 10.022611=T 11.01456=T -10.3152=T -7.8904=T -9.982=T 1.674=T -0.3566=T -0.246=T 9.5784=T 0.76504=T 4.37918552=T 10.7023847298=T 0.693303336=T pbc="F F F"
O        4.09738474       2.19941506      -2.87985092
C        3.26870596       2.68022831      -2.13610059
O        3.33424213       2.73353476      -0.78488467
C        4.52577497       2.15015757      -0.18804570
C        5.69950117       3.13622999      -0.16991060
C        5.45828656       4.32978918       0.63071513
C        5.25686648       5.31769333       1.30554414
H        2.31869135       3.14954421      -2.45707127
H        4.80503069       1.25173458      -0.75424437
H        4.21974553       1.88232054       0.83005297
H        5.95215317       3.41439068      -1.20502757
H        6.57525685       2.59603016       0.22843843
H        5.07483040       6.19153163       1.89705501
