15
Properties=species:S:1:pos:R:3 -1611.0551919516424=T 13.447736=T 12.86608=T -9.2128=T -7.3263=T -9.188=T -0.7527=T -2.3272=T -1.274=T 8.57229=T 1.87744=T 3.3730019342=T 4.4209192076=T 0.889141253=T pbc="F F F"
C        0.97341431      -0.19140853       0.17271174
C        2.43849914      -0.29732202      -0.16078949
C        3.01121349      -1.47395688      -0.50466089
C        3.26592923       0.89941442      -0.11282923
C        2.85619289       2.15112988       0.21266108
C        3.80202220       3.26652532       0.21976251
O        3.51383264       4.42426339       0.50173021
H        0.46401957       0.50905388      -0.50622689
H        0.82788489       0.18695973       1.19580077
H        0.47943361      -1.16736407       0.09358027
H        2.43344344      -2.39792266      -0.55450118
H        4.07436473      -1.53594586      -0.74379198
H        4.32414609       0.76071822      -0.36712127
H        1.82211040       2.38192874       0.47958334
H        4.85228336       2.98729644      -0.06003898
