13
Properties=species:S:1:pos:R:3 -1346.060609460786=T 11.859562=T 12.27413=T -8.9801=T -6.9841=T -9.575=T 1.006=T -0.8001=T 0.537=T 9.22207=T 0.06465=T 4.3549710542=T 10.7312734678=T 0.310875056=T pbc="F F F"
C        1.83790949      -0.34433837      -0.65609596
N        2.60490560       0.66101304      -0.84109747
N        2.98597540       1.26297881       0.42102242
C        4.29158559       1.93979115       0.25509385
C        3.05046430       2.76219757       0.21567294
C        2.62337197       3.58186200       1.30981498
C        2.27188864       4.30252177       2.22185690
H        1.48810344      -0.87692700      -1.54429575
H        1.52896742      -0.67840447       0.34389547
H        4.80464221       1.78098039      -0.69515245
H        4.90220340       1.93914903       1.15814416
H        2.73722856       3.08273734      -0.78178073
H        1.96134398       4.92855873       3.03304165
