13
Properties=species:S:1:pos:R:3 -1309.3988720745854=T 8.814707=T 9.41573=T -9.1539=T -6.9343=T -10.575=T 1.0012=T -0.9603=T 0.012=T 10.04442=T 0.62729=T 3.6950183734=T 12.95281742=T 0.111120718=T pbc="F F F"
O        0.71519767       0.33983627      -0.16226647
C        1.87382837       0.18346056       0.17284338
C        2.99528503       1.15677893      -0.09439712
C        2.57742621       2.63848963      -0.21879754
N        2.99104136       2.83486007       1.20132036
C        3.79057600       1.58094048       1.17286971
H        2.19418980      -0.74871968       0.71140364
H        3.60678518       0.73581888      -0.90862963
H        1.51026618       2.81880234      -0.41336441
H        3.19068540       3.18387948      -0.95723947
H        3.53322706       3.68294157       1.37792517
H        4.86598760       1.71550626       0.95815364
H        3.68166415       0.94866521       2.06994872
