15
Properties=species:S:1:pos:R:3 -1478.2146520805736=T 12.892005=T 12.27793=T -7.5559=T -5.7496=T -8.451=T 0.788=T -0.7574=T -0.222=T 7.79464=T 0.8501=T 4.4535523228=T 0.506497922=T pbc="F F F"
C        0.99371800       0.00364061      -0.04721082
C        2.49069445      -0.06815250       0.05227929
N        2.99123769      -1.36338836       0.12264890
C        3.25360258       1.06243835       0.13657945
C        4.68562889       1.09818556       0.23309745
N        5.31480183       2.22939773       0.31439916
O        6.71728696       2.00343105       0.38911990
H        0.64891022       1.04340669      -0.04887006
H        0.52117874      -0.52053815       0.79835351
H        0.63576859      -0.47760176      -0.97273779
H        2.42472455      -2.08005704      -0.32228487
H        3.98513273      -1.48771312      -0.04687596
H        2.74187382       2.02485097       0.13813129
H        5.27551239       0.16869944       0.24157347
H        7.05878855       2.91313054       0.45145707
