20
Properties=species:S:1:pos:R:3 -1930.5600976621818=T 12.411971=T 13.75995=T -8.8491=T -6.848=T -10.494=T 0.9475=T 0.0671=T 3.259=T 9.76408=T -3.33236=T 8.699911641=T 12.2261230754=T 0.171475266=T pbc="F F F"
C        1.08399727       0.09170347      -0.12844643
C        2.57033341       0.23097985       0.20639750
C        3.03134556       1.67537603       0.45064512
C        2.39499304       2.30553633       1.68966677
N        4.49544294       1.68093808       0.61886723
C        5.27579496       1.71827268      -0.62177771
C        5.16963426       2.92822891       0.24691670
H        0.83404715      -0.95220579      -0.36507378
H        0.81082434       0.70366334      -1.00237648
H        0.44093242       0.39965659       0.70859410
H        3.17037676      -0.18252330      -0.62111995
H        2.82105549      -0.36721355       1.09818801
H        2.74872075       2.28320390      -0.44143030
H        2.64077446       1.71467094       2.58459175
H        1.30234055       2.36041059       1.59340779
H        2.77022527       3.32748801       1.84320134
H        4.72646503       1.74551963      -1.56983263
H        6.18812897       1.11780432      -0.63037194
H        6.00295700       3.23023090       0.88507330
H        4.55040036       3.74968906      -0.13110041
