16
Properties=species:S:1:pos:R:3 -1645.8040105116215=T 11.88741=T 12.68297=T -9.2653=T -7.345=T -9.915=T 0.5874=T -1.0045=T -0.175=T 9.35061=T 0.7571=T 4.1695499912=T 5.5036021554=T 0.404321336=T pbc="F F F"
C        1.49557837      -0.44812534      -0.58557807
C        2.90009690      -0.24038084       0.00509413
C        3.20194196       1.20059963       0.26474262
C        4.21415232       1.89979599      -0.27060226
C        4.40620110       3.34330309       0.05664514
N        5.47644171       3.93084175      -0.57970847
O        3.68027806       3.97676247       0.82489822
H        1.28552694      -1.51749021      -0.72689058
H        1.40171790       0.05205702      -1.55989796
H        0.72147983      -0.03584065       0.07802236
H        3.66212528      -0.67433726      -0.66163363
H        2.96489026      -0.78952108       0.96162209
H        2.53217681       1.74459804       0.94222280
H        4.91789119       1.41995195      -0.95999106
H        6.08459668       3.41836739      -1.20697873
H        5.66450468       4.91067806      -0.39660660
