11
Properties=species:S:1:pos:R:3 -1175.4547313331168=T 10.772692=T 11.05912=T -9.0768=T -7.2174=T -9.285=T 0.6205=T -1.0059=T -0.365=T 8.63739=T 0.91078=T 4.6659775366=T 10.429020397=T 0.360752852=T pbc="F F F"
C        0.94510559       0.00719690      -0.00763017
C        2.44716102       0.04664529      -0.00101199
C        3.23259643       1.18227096       0.00211028
S        4.89573877       0.73784525       0.00868222
N        4.60674575      -0.91738685       0.00717220
C        3.29269295      -1.10481995       0.00230010
H        0.51853911       1.01785548       0.00195842
H        0.55833785      -0.52992818       0.87094795
H        0.56557414      -0.50993161      -0.90131378
H        2.91316584       2.22184581       0.00111693
H        2.92512256      -2.13430309       0.00095784
