15
Properties=species:S:1:pos:R:3 -1559.3521533322794=T 10.719104=T 11.61643=T -8.359=T -6.3776=T -9.04=T 0.7932=T -0.1286=T 1.068=T 8.45504=T -0.39385=T 4.995085975=T 11.8751683038=T 0.15567084=T pbc="F F F"
C        1.00416920      -0.00871382       0.29772215
C        2.45693187      -0.00762681      -0.05195004
N        3.12308330       1.04528874      -0.41680564
C        4.48898298       0.64344101      -0.62692834
C        5.26353887       0.10693066       0.56280359
C        4.56038449      -0.87393910      -0.33449042
N        3.20387804      -1.18701367       0.06049077
H        0.46959346      -0.82026211      -0.21964079
H        0.56437236       0.95152883       0.00892803
H        0.86049665      -0.15628266       1.37792009
H        5.03031982       1.14874271      -1.42883181
H        6.35058910       0.14505857       0.48930432
H        4.85086662       0.27859119       1.55885481
H        5.10208232      -1.61599786      -0.92073592
H        2.78861092      -2.06633569      -0.23932078
