12
Properties=species:S:1:pos:R:3 -1121.2299896718878=T 6.864247=T 7.42834=T -10.2704=T -7.8462=T -12.169=T 1.0147=T -0.0129=T 3.103=T 11.64668=T -2.88212=T 9.952480206=T 14.9340145112=T 0.142051617=T pbc="F F F"
C        0.97189843      -0.03265788      -0.00785599
C        2.50171964       0.00728450       0.01298289
C        3.04630959       1.43366989       0.03318078
O        4.47693921       1.50173053       0.00091275
H        0.60016279      -1.06643645      -0.01486661
H        0.57285613       0.47039985      -0.90167717
H        0.54536228       0.46877389       0.87425763
H        2.91266266      -0.51372633      -0.86639904
H        2.87422668      -0.53247261       0.90183883
H        2.64576383       1.97691107       0.91137831
H        2.71230031       1.97753213      -0.86427503
H        4.81248845       1.04808141       0.79397266
