12
Properties=species:S:1:pos:R:3 -1385.4971359016467=T 10.41282=T 10.13849=T -8.7827=T -6.9488=T -8.944=T 0.5584=T -0.9867=T 0.011=T 8.54036=T 0.53732=T 4.3243465122=T 6.4861168138=T 0.539753725=T pbc="F F F"
O        0.97942128      -0.09697867       0.09819373
C        2.34395316      -0.01442934       0.00527793
C        3.04703463       1.19076958      -0.07926465
C        4.43914848       1.13871611      -0.16992991
C        5.07160241      -0.10631670      -0.17251591
N        4.40263498      -1.27024051      -0.09142899
C        3.06918350      -1.21846274      -0.00475149
H        0.60519778       0.80238078       0.09431816
H        2.51795597       2.14746397      -0.07424213
H        5.02514313       2.05655703      -0.23756311
H        6.16033865      -0.17684936      -0.24235992
H        2.52756602      -2.16684013       0.06102628
