15
Properties=species:S:1:pos:R:3 -1555.425794751145=T 11.051026=T 11.33666=T -9.7174=T -7.6311=T -9.955=T -0.6807=T -2.2999=T -0.929=T 9.58861=T 1.66174=T 3.5013274442=T 4.83483407=T 0.40811163=T pbc="F F F"
C        1.08680937      -0.02862112      -0.11139294
C        2.57802102       0.00975342       0.00853070
C        3.26878935      -1.34532369      -0.00404802
O        4.16837532      -1.57560428       1.06115578
C        3.23245072       1.20200038       0.09828116
C        4.67357685       1.42170379       0.13320156
O        5.56307702       0.56684583       0.22231848
H        0.63937141       0.96941612      -0.19524313
H        0.65776093      -0.54024744       0.76594796
H        0.78756900      -0.62721745      -0.98764364
H        3.76222058      -1.45210501      -0.99490579
H        2.50418154      -2.13505337       0.05446064
H        4.90906874      -0.93822853       0.90640395
H        2.63666792       2.12009873       0.08682434
H        4.97041023       2.49451263       0.05475894
