17
Properties=species:S:1:pos:R:3 -1669.2070503795799=T 12.185943=T 12.99317=T -8.8438=T -6.9193=T -9.64=T 1.237=T -0.0766=T 1.031=T 9.03522=T -0.38512=T 4.7832434954=T 6.1751475272=T 0.22570856=T pbc="F F F"
C        2.22249322      -0.11366671      -1.37078384
C        3.32061025      -0.08713866      -0.30678157
N        4.08669718       1.14908838      -0.38103623
C        4.16371879       1.85317040       0.68115182
N        4.95554409       3.00234922       0.78317085
C        5.09462178       3.88531557      -0.36624085
C        4.31923376       4.32536001       0.83997031
H        1.69483551      -1.07814875      -1.35881479
H        2.65310672       0.03752962      -2.37068761
H        1.48657724       0.68432619      -1.19365865
H        4.01737406      -0.92349224      -0.49040123
H        2.88002875      -0.24825489       0.69962235
H        3.67172795       1.58557359       1.63648551
H        4.53542501       3.60762734      -1.26279929
H        6.09876119       4.28073233      -0.53171815
H        4.75935272       5.02841617       1.55027119
H        3.23065178       4.36641246       0.74197019
