10
Properties=species:S:1:pos:R:3 -1101.310711688441=T 8.429303=T 9.12566=T -10.7407=T -8.2248=T -10.193=T 1.6715=T -0.4435=T -0.304=T 10.05526=T 0.83125=T 4.366414962=T 10.7023723312=T 0.628894213=T pbc="F F F"
O        3.00506797      -1.05333349      -0.76219695
C        2.46572324       0.00362837      -1.00802481
O        2.98578022       1.23484530      -0.79183759
C        4.32891847       1.21852495      -0.20574134
C        4.78006972       2.58443840      -0.02660625
C        5.20107629       3.70866796       0.14023130
H        1.45792347       0.12504576      -1.45019241
H        4.99974664       0.65845764      -0.87484829
H        4.28975886       0.67930733       0.75297269
H        5.56449511       4.70584778       0.28472365
