17
Properties=species:S:1:pos:R:3 -1596.4275364016785=T 9.9292=T 10.70134=T -9.3762=T -7.1692=T -10.586=T 0.7612=T -0.245=T 2.979=T 10.03836=T -2.71074=T 8.6290908378=T 11.9522132042=T 0.117830441=T pbc="F F F"
C        3.33416253      -1.09305915      -1.19187474
C        2.78084293      -0.24805354      -0.03896471
O        3.13015864      -0.81443484       1.23042940
C        3.18216210       1.23841922      -0.12344709
C        4.68881769       1.50883786      -0.06493988
N        5.26518503       1.00955314       1.20526932
H        3.01024909      -0.70347825      -2.16986422
H        2.97329476      -2.12545505      -1.09286766
H        4.43373227      -1.12507150      -1.17710594
H        1.67820621      -0.29163646      -0.08690822
H        4.03861840      -0.47429129       1.41881801
H        2.68501865       1.77263387       0.70458457
H        2.78685271       1.66975540      -1.05807039
H        4.87337924       2.58762982      -0.22878009
H        5.19577024       0.97676937      -0.88477778
H        4.97184135       1.61265079       1.97902042
H        6.28587816       1.05357060       1.17506899
