13
Properties=species:S:1:pos:R:3 -1356.550286654633=T 9.855417=T 10.42141=T -9.3257=T -7.2823=T -9.039=T 0.7303=T -1.0695=T -0.912=T 8.47522=T 1.59842=T 3.8301011204=T 7.4169913032=T 0.230350284=T pbc="F F F"
C        1.13466172       0.10411114       0.00581062
C        2.62513505       0.13628830       0.00041512
C        3.52091477       1.18334428      -0.00038734
C        3.29917349       2.65765346       0.00409577
N        4.77972784       0.61564855      -0.00560980
N        4.75098076      -0.63638507      -0.00814813
O        3.28726521      -1.02356988      -0.00402929
H        0.77549314      -0.93073157      -0.00908483
H        0.72904513       0.62609503      -0.87223403
H        0.73599330       0.59762013       0.90338438
H        2.22667314       2.88861996      -0.00233966
H        3.75503247       3.13011805      -0.87767503
H        3.74250397       3.12336762       0.89592222
