16
Properties=species:S:1:pos:R:3 -1647.3230049397248=T 10.702855=T 11.62968=T -8.8605=T -6.8294=T -9.814=T 0.9765=T 0.111=T 2.938=T 9.34168=T -2.86127=T 7.730961051=T 10.082169562=T 0.163541131=T pbc="F F F"
C        1.78745602      -0.00017359      -0.51928647
C        0.82832402       0.76229821       0.36624096
C        0.82823933      -0.76236905       0.36638568
C       -0.63560834      -0.99664284      -0.08443451
C       -0.85850189      -0.00009466      -1.24739940
C       -0.63549665       0.99664990      -0.08462400
N       -1.43080706       0.00012755       0.74812401
H        1.66961175      -0.00026837      -1.60307035
H        2.83126784      -0.00019938      -0.19671561
H        1.21516655       1.34252901       1.20553634
H        1.21501796      -1.34248221       1.20579185
H       -1.00046539      -2.03147099      -0.11338727
H       -1.90738212      -0.00006561      -1.56017030
H       -0.18827086      -0.00021511      -2.11313926
H       -1.00023651       2.03151374      -0.11377576
H       -1.10525465       0.00020340       1.72695409
