20
Properties=species:S:1:pos:R:3 -1894.2185688519385=T 11.694821=T 12.69882=T -9.3059=T -7.1131=T -10.528=T 0.7268=T -0.2555=T 2.654=T 9.97471=T -2.32982=T 8.4587216752=T 10.95106345=T 0.102712975=T pbc="F F F"
C        0.95628029      -0.01043368       0.07373476
C        2.49363479       0.00277707       0.07589171
C        3.01749353      -0.54430894       1.41257082
C        3.04848993      -0.89769617      -1.05290830
N        2.65807222      -0.42813288      -2.40238522
C        3.02061547       1.44967914      -0.09639348
O        2.56990044       2.10803726      -1.27359489
H        0.55047179       0.47502414      -0.82476879
H        0.56662393       0.54472433       0.94025510
H        0.56843296      -1.03986902       0.13248057
H        2.64151029       0.05762990       2.25332337
H        4.11809361      -0.52678020       1.45133809
H        2.69033106      -1.58298568       1.57330696
H        2.74179560      -1.94491396      -0.85803164
H        4.14973295      -0.87163190      -1.00709399
H        1.68064345      -0.66611610      -2.58919214
H        3.21151897      -0.90941227      -3.11388552
H        4.13105610       1.41814186      -0.05690590
H        2.68512696       2.05999614       0.75967475
H        2.66787568       1.43211095      -1.98995626
