13
Properties=species:S:1:pos:R:3 -1466.0447867957464=T 12.530668=T 13.63373=T -9.3003=T -7.1245=T -9.169=T 1.0503=T 0.0426=T 1.891=T 8.88585=T -1.66085=T 4.2960033126=T 10.7128987426=T 0.62582706=T pbc="F F F"
C        0.99729464       0.01586227      -0.07828287
C        2.21185347       0.00479790      -0.03687022
C        3.64341665      -0.01215129       0.00738261
C        4.44158746      -0.74000996      -1.05456317
C        4.43934320       0.77477863      -1.05761312
C        5.60290537       1.50876893      -0.65890744
C        6.59264751       2.12732784      -0.32014153
H       -0.07273997       0.02871578      -0.11250450
H        4.08617540       0.00803730       1.00537742
H        3.88164080      -1.23673397      -1.84586216
H        5.35603321      -1.23628867      -0.73216698
H        3.82039625       1.24835550      -1.82251211
H        7.46271601       2.67497973      -0.02116594
