14
Properties=species:S:1:pos:R:3 -1427.5761316042624=T 9.42915=T 10.29855=T -9.8517=T -7.618=T -11.163=T 1.8595=T -0.2219=T -0.229=T 10.87361=T 0.73813=T 4.375837898=T 11.726409901=T 0.189291237=T pbc="F F F"
O        5.23719284       0.35036998      -1.23743046
C        4.97583817       0.46198921      -0.05908288
O        4.60378275       1.59018071       0.59021860
C        4.51233370       2.80573096      -0.21872819
C        5.79788412       3.58971569      -0.16097050
C        6.86347319       3.40225403      -1.18268245
N        5.95244567       4.56550273      -1.26136007
H        4.99459087      -0.36684069       0.67574111
H        3.68335932       3.37062290       0.22803923
H        4.27024531       2.54441801      -1.25667352
H        6.11470797       3.88913243       0.84317424
H        6.71868766       2.65559855      -1.96589398
H        7.89783833       3.56316629      -0.86962725
H        6.42408011       5.40452920      -0.91104388
