15
Properties=species:S:1:pos:R:3 -1528.394300767671=T 12.067854=T 12.91806=T -8.7377=T -6.9551=T -9.554=T 1.0237=T -0.721=T 0.259=T 8.72013=T 0.23052=T 4.1491542942=T 10.5138516182=T 0.343673521=T pbc="F F F"
C        1.53295586       0.37705146       0.44565555
C        2.86235877      -0.02908786      -0.17835867
N        3.86137832       1.01110537       0.01305612
C        5.14272097       0.90429570      -0.50422109
N        5.69821043      -0.12959437      -1.05113041
C        5.91512326       2.11809216      -0.36526745
C        6.52628811       3.16005782      -0.24745649
H        0.78995858      -0.41914546       0.30755478
H        1.13473620       1.28889886      -0.02424507
H        1.64162488       0.56022718       1.52385618
H        2.72737602      -0.24382559      -1.25595018
H        3.22431937      -0.95963373       0.29195299
H        3.52896330       1.95196317       0.20685158
H        5.03702676      -0.91598794      -1.10010445
H        7.09206917       4.06437324      -0.15175338
