17
Properties=species:S:1:pos:R:3 -1677.0722477382108=T 10.594876=T 12.05825=T -9.5872=T -7.3458=T -11.003=T 0.8119=T -0.2076=T 2.965=T 10.68633=T -2.66743=T 8.8721653908=T 11.4886915432=T 0.159239415=T pbc="F F F"
O        2.70954793       3.94222753      -0.78668731
C        2.92132659       2.93607863      -1.79010417
C        3.32564380       1.64216576      -1.09416074
C        4.63091612       1.74540357      -0.33339291
C        5.46682834       0.50838681      -0.05190823
C        5.95063631       1.53173652      -1.03614407
O        7.09017474       2.27559757      -0.65441527
H        2.44090231       4.76140944      -1.23402214
H        3.71876173       3.24754527      -2.49250220
H        1.99848701       2.76866161      -2.37596859
H        3.40002029       0.85058426      -1.85872573
H        2.51511282       1.34190469      -0.40866502
H        4.65154588       2.50387004       0.45227842
H        5.12324444      -0.45364116      -0.43617964
H        5.99576217       0.46784385       0.90044668
H        5.91741630       1.25935969      -2.09912810
H        6.96012322       3.18972591      -0.96414097
