17
Properties=species:S:1:pos:R:3 -1690.5477830273635=T 11.442732=T 12.6978=T -9.2281=T -7.1076=T -10.498=T 0.7238=T -0.3184=T 1.456=T 9.73315=T -1.06904=T 5.3728837156=T 11.6982154846=T 0.29518557=T pbc="F F F"
C        1.41511261      -0.01470367       1.08854312
N        2.83577226       0.30989023       1.23668469
C        3.18348770       1.67965259       0.83786790
C        2.55487156       2.70963675       1.77605334
C        4.72697800       1.77411425       0.86623770
C        5.23216280       3.05967818       0.40136891
N        5.62448057       4.09116541       0.02304850
H        1.28057801      -1.09392429       1.24022372
H        0.99248300       0.25323712       0.09781316
H        0.82369813       0.49811374       1.85961542
H        3.37334456      -0.34069070       0.65777801
H        2.84997703       1.90482047      -0.19994103
H        2.83556413       2.49610655       2.81839111
H        1.45971741       2.70057365       1.70380809
H        2.89384552       3.72144987       1.51578599
H        5.16530306       0.98775788       0.22965363
H        5.08114365       1.59403195       1.89383771
