10
Properties=species:S:1:pos:R:3 -1223.5364412098647=T 12.150306=T 13.17789=T -9.8893=T -7.7438=T -9.135=T 0.3745=T -1.344=T 0.465=T 8.75922=T -0.11088=T 3.2371380754=T 7.9775816036=T 1.95780716=T pbc="F F F"
C        0.87664352      -0.03013918       0.00000000
C        2.09627952      -0.01042167       0.00000000
C        3.45516594       0.00825349       0.00000000
C        4.67548032       0.02347282       0.00000000
C        6.13228451       0.02400372       0.00000000
C        6.71434364       1.37282388       0.00000000
N        7.20030211       2.43168246       0.00000000
H       -0.19381535      -0.04442800       0.00000000
H        6.51451790      -0.51521876      -0.88397388
H        6.51451790      -0.51521876       0.88397388
