17
Properties=species:S:1:pos:R:3 -1682.1191699049307=T 10.54653=T 11.89309=T -9.8884=T -7.7009=T -11.539=T 0.9713=T -0.036=T 2.723=T 11.20268=T -2.48354=T 9.3029671464=T 9.955889821=T 0.080999961=T pbc="F F F"
O        2.22137409      -0.41764465      -1.41736601
C        2.34624022       0.01793492      -0.05391760
C        3.09037777       1.33384924      -0.03263465
C        2.40214489       2.64032831      -0.51844980
C        3.12707044       3.40346522       0.62380197
C        3.30464710       2.03904704       1.33564868
O        4.45239670       1.76492673       2.12199640
H        1.72440684      -1.25276056      -1.41987134
H        2.90055344      -0.72558725       0.55025210
H        1.34816362       0.15453435       0.40687477
H        4.06289768       1.21439348      -0.54176217
H        1.31462413       2.59919598      -0.35722915
H        2.59458231       2.95857056      -1.54962519
H        4.10007867       3.79239857       0.28335079
H        2.59287587       4.20022053       1.15836400
H        2.44661320       1.84178463       1.99943584
H        5.23482304       1.97140289       1.57946136
