14
Properties=species:S:1:pos:R:3 -1376.9943120061662=T 9.512824=T 10.09274=T -8.8925=T -6.8214=T -9.321=T 0.929=T -0.0347=T 1.023=T 8.88031=T -0.49034=T 6.1175560302=T 0.315708575=T pbc="F F F"
C        3.18671521      -0.86291337      -1.11439159
O        2.53478140       0.01892044      -0.19461720
C        3.17985341       1.18463500       0.07964859
C        4.35476699       1.63081382      -0.40404678
C        4.92104326       2.94688246       0.02886019
O        6.16362964       2.81254765       0.74829331
H        2.52815248      -1.73190922      -1.21838573
H        4.16764667      -1.18174370      -0.72597237
H        3.32301300      -0.37700157      -2.09419727
H        2.59034325       1.77786823       0.78491787
H        4.94948403       1.04124292      -1.10445288
H        4.17469677       3.50051816       0.63032331
H        5.17380425       3.57469170      -0.83969029
H        6.01027964       2.14731749       1.44351085
