14
Properties=species:S:1:pos:R:3 -1408.0831169980518=T 9.413161=T 10.10285=T -9.23=T -7.1397=T -10.362=T 1.4444=T -0.2956=T 0.413=T 9.97174=T 0.1724=T 5.4755689208=T 6.2152074038=T 0.174961468=T pbc="F F F"
O        2.92923944      -0.96154641      -0.67433159
C        2.38554259       0.13110738       0.07649488
C        3.38836707       1.27946390      -0.00186984
C        3.54399376       1.86956479      -1.40953208
C        2.76831056       3.14644435      -1.24348523
N        2.41759874       3.41398824      -0.03700528
O        2.85818210       2.38235233       0.81588546
H        2.31203542      -1.70861587      -0.60856977
H        2.23526729      -0.13585386       1.13664817
H        1.41698626       0.46888127      -0.33754014
H        4.34535887       0.97463524       0.44498025
H        3.13264354       1.20531405      -2.18328983
H        4.59132413       2.07910281      -1.68009788
H        2.51430023       3.85621177      -2.03020713
