13
Properties=species:S:1:pos:R:3 -1410.8237624778303=T 10.079904=T 10.6059=T -7.711=T -5.7737=T -8.463=T 0.7006=T -0.2075=T 0.791=T 8.09873=T -0.15355=T 4.8258326864=T 5.0891541532=T 0.17034195=T pbc="F F F"
C        0.94823679      -0.00660741      -0.00825962
C        2.43425605       0.06384351      -0.00047626
C        3.27674065       1.13273242       0.00541019
N        4.58617400       0.64395803       0.01113652
C        4.60815813      -0.75215933       0.00914885
O        5.57679394      -1.50745323       0.01298422
N        3.24618108      -1.07694384       0.00171888
H        0.52540962       1.00570943      -0.00580865
H        0.55984622      -0.53584474       0.87649503
H        0.56863221      -0.52795302      -0.90148745
H        3.04881143       2.19170342       0.00591332
H        5.43897390       1.18979650       0.01640917
H        2.93079598      -2.03999174      -0.00109422
