14
Properties=species:S:1:pos:R:3 -1398.3508119464084=T 11.183547=T 11.20194=T -8.797=T -6.9005=T -9.393=T 0.4861=T -1.2253=T -0.473=T 8.79334=T 1.01294=T 5.1610908304=T 0.579893066=T pbc="F F F"
O        1.22987921      -0.20115239       0.06312926
C        2.62606801       0.08556892      -0.03335767
C        2.84983240       1.57519732       0.03200574
C        1.83735496       2.45594542       0.16300012
C        4.22353571       2.05145924      -0.05171829
N        5.20054944       1.21741080      -0.17610086
O        6.43462153       1.90031486      -0.23704412
H        1.12593323      -1.16469043       0.01642764
H        3.05236339      -0.29376979      -0.98055546
H        3.19473837      -0.39269491       0.78559519
H        0.80668263       2.11252677       0.22689687
H        2.03226947       3.52817324       0.20733914
H        4.40891136       3.13367926      -0.00718822
H        7.06893028       1.16635171      -0.32796935
