16
Properties=species:S:1:pos:R:3 -1528.810156347953=T 9.315659=T 10.29004=T -9.8826=T -7.5458=T -11.909=T 0.844=T -0.1751=T 2.707=T 11.53255=T -2.44439=T 9.5955617078=T 0.075307794=T pbc="F F F"
C        1.20658852      -0.83102891       0.40604860
C        2.56052205      -0.23215306       0.04400688
O        3.20736388      -1.01650517      -0.99631439
C        2.47917662       1.24913324      -0.34144614
C        3.84096324       1.88738515      -0.62775013
O        4.47719259       1.37126027      -1.79594409
H        0.76310515      -0.30835140       1.26568040
H        1.31208902      -1.89399416       0.66159355
H        0.50148472      -0.74221228      -0.43662467
H        3.24626912      -0.33703682       0.90228007
H        2.57321242      -1.09352192      -1.73387812
H        1.99850800       1.79761467       0.48700640
H        1.82627903       1.36558928      -1.22523636
H        4.49208314       1.76666581       0.26317791
H        3.71867315       2.96854911      -0.79447602
H        4.40652935       0.39662618      -1.71873390
