17
Properties=species:S:1:pos:R:3 -1660.4764183801124=T 10.758832=T 11.51125=T -9.0011=T -6.9754=T -10.618=T 0.6299=T -0.3913=T 0.622=T 9.58908=T 0.01638=T 4.3348853222=T 12.2392035984=T 0.174469306=T pbc="F F F"
N        1.64121944      -2.09693607      -0.54568901
C        1.53007106      -0.82230555       0.19672284
C        2.66569793       0.14572028      -0.15213825
C        4.08662010      -0.45461082      -0.11878363
C        4.43029099      -1.12269942       1.21353083
N        4.05903161      -2.44297224       1.28219573
O        5.00219775      -0.53085893       2.12929062
H        0.82303425      -2.67904310      -0.35017813
H        1.61831181      -1.91480126      -1.55363427
H        1.57621583      -1.06757475       1.26992787
H        0.56726111      -0.30326448       0.02982556
H        2.61144550       0.99600894       0.54538958
H        2.49532156       0.56105788      -1.16037280
H        4.81877547       0.34853221      -0.27245605
H        4.20155550      -1.18333359      -0.93445202
H        3.35476517      -2.77257807       0.61285623
H        4.12481493      -2.88770104       2.19397491
