12
Properties=species:S:1:pos:R:3 -1256.3027085266071=T 8.617862=T 9.12624=T -9.5904=T -7.5428=T -10.714=T 0.8996=T -0.9786=T 0.169=T 10.335=T 0.41172=T 5.3604355212=T 6.3043037434=T 0.157008528=T pbc="F F F"
C        1.83157893      -0.39851910       0.00023217
O        1.00785976      -1.60907637       0.12370866
C       -0.07724211      -0.96532031      -0.60987973
C       -1.15848726      -0.39352313       0.26649933
N       -1.05285379       0.86940121       0.49341626
O        0.06312718       1.39304049      -0.19757589
C        0.75952314       0.30162895      -0.84919856
H        2.78368679      -0.61960129      -0.50593507
H        2.01506320       0.08546387       0.97156705
H       -0.43774079      -1.59500125      -1.43716548
H       -1.98759846      -0.94029567       0.71313642
H        1.02531338       0.62202260      -1.86280516
