15
Properties=species:S:1:pos:R:3 -1442.933244669287=T 9.310844=T 10.2596=T -9.2994=T -7.0248=T -10.713=T 0.9469=T -0.0656=T 3.05=T 10.10795=T -2.78546=T 8.6890380688=T 10.9005639522=T 0.071960741=T pbc="F F F"
N        2.09020748      -0.43180227      -1.32521436
C        2.43291870       0.11282545      -0.00311513
C        3.25142496       1.38242198      -0.17179616
C        2.53110232       2.66701174      -0.62703634
C        3.08031584       3.27474881       0.67630344
O        3.60225978       1.98339203       1.11436901
H        1.41380038      -1.19075114      -1.22627176
H        2.91963978      -0.84513809      -1.75919204
H        2.99894143      -0.57634457       0.65556288
H        1.49890945       0.36671039       0.52304871
H        4.16718057       1.16281735      -0.75664901
H        1.43938118       2.55981832      -0.66300757
H        2.88262130       3.11810542      -1.56197869
H        3.89363692       4.00794726       0.53859194
H        2.34558991       3.67817733       1.39099507
