12
Properties=species:S:1:pos:R:3 -1269.9536778931044=T 11.589612=T 11.83299=T -8.6974=T -6.9128=T -9.109=T 0.8875=T -0.6978=T -0.378=T 8.42418=T 0.96673=T 4.470439216=T 9.920429825=T 0.606173894=T pbc="F F F"
C        3.09289483      -1.18583855       0.53661445
O        2.35396193       0.01756640       0.27067440
C        3.08159586       1.14919902       0.19796718
C        2.57309325       2.41181478      -0.04864703
C        3.61904713       3.36318884      -0.05576822
N        4.86348163       2.94289286       0.16104587
S        4.81999995       1.27498270       0.39746267
H        2.35624031      -1.99504276       0.56177137
H        3.60561579      -1.11658694       1.50901468
H        3.82652716      -1.37268588      -0.26344725
H        1.51852873       2.62084157      -0.21107331
H        3.47307343       4.43172797      -0.22912482
