16
Properties=species:S:1:pos:R:3 -1562.8668181581154=T 10.428055=T 11.43163=T -9.0263=T -6.8384=T -10.433=T 0.5905=T -1.4096=T -0.33=T 10.37342=T 0.94787=T 3.7005729462=T 8.7340821826=T 0.098163312=T pbc="F F F"
C        1.37033005       0.24410771       0.83352961
N        2.82824603       0.28720144       0.92568597
C        3.42394175       1.14837899      -0.08805329
C        4.95180789       1.02381306      -0.03660462
O        5.36362047      -0.29972507      -0.31429613
C        5.60909833       1.99818516      -0.98352140
O        6.39824544       1.62828661      -1.83801033
H        0.98006438      -0.47461007       1.56671196
H        0.98783721      -0.03714741      -0.17030416
H        0.95562719       1.23308914       1.08399985
H        3.20674876      -0.65516807       0.79688368
H        3.13807514       2.19444887       0.12265363
H        3.08418168       0.91175379      -1.12193243
H        5.26929718       1.31058014       0.99031293
H        5.99812800      -0.21845775      -1.06080035
H        5.34382049       3.07489346      -0.85860493
