15
Properties=species:S:1:pos:R:3 -1559.663457938075=T 10.231341=T 10.9016=T -9.5075=T -7.2906=T -9.375=T 1.1629=T -0.3124=T 1.043=T 8.89203=T -0.42674=T 6.1227882394=T 0.303313301=T pbc="F F F"
O        1.30629562      -0.01882129       0.64557170
C        2.55160315      -0.07023697      -0.04558872
C        2.60078131      -1.28656451      -0.98801898
C        3.46176828      -0.79409179      -2.12346667
C        3.60225926       0.54087304      -2.10665345
C        2.86103547       1.15722523      -0.94654265
O        3.54705315       2.21766212      -0.26251352
H        1.33906105       0.74590716       1.24751598
H        3.38848460      -0.14824028       0.67889263
H        1.57761909      -1.51470644      -1.33477965
H        2.98418457      -2.19588600      -0.50172933
H        3.87658825      -1.45908447      -2.88286075
H        4.13417710       1.14121052      -2.84647370
H        1.91203303       1.61704557      -1.27653052
H        4.44654606       1.89543813      -0.06578236
