14
Properties=species:S:1:pos:R:3 -1391.5572423096864=T 8.549563=T 9.46783=T -9.8345=T -7.494=T -11.521=T 0.9639=T 0.0222=T 2.897=T 11.06176=T -2.62429=T 9.2643827032=T 10.9481001846=T 0.12972724=T pbc="F F F"
C        1.01272210      -0.04092720       0.00167445
C        2.51954784      -0.02810982       0.14775365
C        3.10515985       1.15314493       0.94356721
O        4.21925010       0.59578578       1.66438369
C        4.24853267      -0.79880047       1.34582911
O        2.94923600      -1.16091438       0.93038356
H        0.68263038      -0.94477810      -0.52704076
H        0.67942989       0.83295050      -0.57573506
H        0.53220808      -0.01472848       0.98972958
H        3.00548453      -0.08066180      -0.84800038
H        2.37471760       1.55196802       1.66839542
H        3.45008853       1.96878723       0.28770698
H        4.98391678      -0.97843040       0.53180559
H        4.51112565      -1.37544581       2.24439699
