14
Properties=species:S:1:pos:R:3 -1403.0510355136691=T 8.747771=T 9.75561=T -10.0163=T -7.9343=T -10.973=T 0.9036=T -0.9419=T -0.048=T 9.98191=T 0.75518=T 3.7882310482=T 11.7228639014=T 0.150887622=T pbc="F F F"
C        0.96657032      -0.20351729      -0.00391636
C        2.45792646       0.11325852      -0.05516353
C        2.77667334       1.59311856      -0.05011226
O        1.91699219       2.46614768       0.00653719
C        4.23853724       2.01671989      -0.11709613
O        4.36816093       3.41701905      -0.09450286
H        0.80309240      -1.28912580      -0.00414025
H        0.44284314       0.22669600      -0.86757235
H        0.50617918       0.21714173       0.89953586
H        2.93143519      -0.32631799      -0.95084862
H        2.99312689      -0.34197636       0.79710158
H        4.68390132       1.59157078      -1.03845628
H        4.77711149       1.55480511       0.73377280
H        3.43897990       3.74128012      -0.04380880
