19
Properties=species:S:1:pos:R:3 -1878.1628936120437=T 12.116058=T 13.03737=T -9.4336=T -7.2744=T -9.217=T 1.041=T -0.2623=T 1.263=T 8.59628=T -0.63514=T 6.271769817=T 0.374809754=T pbc="F F F"
C        3.17560136      -1.52417153      -1.00023177
C        2.81528120      -0.52254274       0.09870583
O        2.90915154      -1.12742665       1.39380711
C        3.61289724       0.80896888       0.04657202
C        5.09952367       0.64926560       0.28410291
C        5.99041800       0.55844412      -0.92720321
C        5.59952611       0.59392782       1.53296593
H        3.05258636      -1.08523275      -2.00223767
H        2.52073521      -2.40237397      -0.92299108
H        4.21462045      -1.87225011      -0.89839252
H        1.75015382      -0.25657479      -0.00498959
H        3.86383149      -1.19783024       1.59589747
H        3.18486043       1.46339146       0.82026446
H        3.43130971       1.28772422      -0.92940803
H        5.67945396      -0.25019335      -1.60590020
H        7.04049643       0.39635599      -0.64980844
H        5.92908816       1.49198457      -1.51096856
H        4.96113645       0.72552734       2.40930868
H        6.66751843       0.45128612       1.71176667
