15
Properties=species:S:1:pos:R:3 -1512.082221363026=T 10.61813=T 11.68709=T -10.1139=T -7.7757=T -9.987=T 0.961=T -0.0866=T 2.126=T 9.58636=T -1.72846=T 4.3759122896=T 11.6965168764=T 0.204683686=T pbc="F F F"
C        2.61477017      -1.01175241       0.25431037
O        2.30068776       0.28497192       0.76074384
C        2.87913484       1.35846947       0.00051774
C        2.31488801       2.64557902       0.62522220
O        2.63355624       2.77114056       2.00083723
C        4.34517958       1.32081206      -0.00429852
C        5.55790262       1.28363714      -0.03179608
H        2.10152454      -1.73100833       0.90373594
H        3.70046126      -1.20251969       0.27820320
H        2.24975699      -1.13218505      -0.78213827
H        2.52202473       1.30097039      -1.04980852
H        1.22097160       2.63488921       0.46023724
H        2.74109541       3.51844327       0.11179978
H        2.38898486       1.92261432       2.41599776
H        6.62866139       1.25908812      -0.03942390
