21
Properties=species:S:1:pos:R:3 -1952.6900877356113=T 12.905971=T 14.6407=T -8.5957=T -6.4705=T -10.05=T 0.9675=T 0.0079=T 3.239=T 9.30825=T -2.99244=T 8.1328492714=T 11.8680391088=T 0.197185187=T pbc="F F F"
C        1.01128292      -0.07296087      -0.00821795
C        2.53453075      -0.05000529       0.05018890
N        3.05162926       1.31459603      -0.06176990
C        4.50960466       1.38530891       0.04110829
C        5.00293103       2.83000292      -0.00129108
C        6.52662533       2.94328111       0.00067674
N        6.93924013       4.35550993       0.03862789
H        0.63510761      -1.10441803       0.04266877
H        0.65109989       0.38610281      -0.93956632
H        0.57265661       0.48181152       0.83600310
H        2.94581451      -0.62998370      -0.79401047
H        2.88123539      -0.56182448       0.97633072
H        2.63966308       1.88577518       0.68305974
H        4.93010268       0.82445659      -0.81267765
H        4.89714317       0.88857704       0.96029821
H        4.61145961       3.39070740       0.86455591
H        4.59392609       3.31420351      -0.90452163
H        6.92962503       2.38065815      -0.86762881
H        6.92831882       2.45610924       0.90493589
H        6.64910390       4.81979384      -0.82672037
H        7.95937953       4.41960820       0.06421002
