17
Properties=species:S:1:pos:R:3 -1666.376579433466=T 10.619349=T 12.03336=T -9.9342=T -7.6749=T -11.728=T 0.9461=T 0.0099=T 2.67=T 11.15242=T -2.36094=T 9.2151230654=T 11.1253133744=T 0.168649338=T pbc="F F F"
C        2.89310175      -0.95887230       0.77710607
O        4.09469665      -0.51035904       0.16600692
C        4.23717235       0.90398111       0.25924868
C        5.56702840       1.30730463      -0.34811301
C        6.80378256       0.77867170       0.33552933
C        5.59753461       1.70208080      -1.76779003
O        5.60361708       2.70630746      -0.73018204
H        2.85938715      -2.04943851       0.66138927
H        2.00165065      -0.51626610       0.29343879
H        2.86819313      -0.70757755       1.85446684
H        4.20440771       1.22334575       1.32197745
H        3.41723610       1.42301705      -0.27395941
H        7.70968206       1.11962338      -0.18103225
H        6.78647716      -0.31991800       0.34677330
H        6.84291017       1.13101585       1.37723373
H        4.68055630       1.65117227      -2.36504293
H        6.53464616       1.60804150      -2.32682073
