15
Properties=species:S:1:pos:R:3 -1582.2975809313007=T 12.193824=T 12.8386=T -9.2753=T -7.1477=T -9.314=T 0.9962=T -0.6573=T 0.838=T 8.92703=T -0.30416=T 6.2750182502=T 0.71450667=T pbc="F F F"
C        0.96313452       0.00673157       0.59414688
C        1.58693649       0.98417032      -0.07713555
C        2.89776793       1.52992531       0.31408609
O        3.80114142       1.90358013      -0.75969253
C        3.26746898       2.95565408       0.05539423
C        4.19747664       3.69223595       0.94427405
C        5.51000596       3.44560481       1.03162429
H       -0.01597904      -0.36104957       0.28744871
H        1.41389227      -0.45405296       1.47631282
H        1.13155681       1.42812604      -0.96798078
H        3.39659689       1.05014075       1.16542399
H        2.50449363       3.56843268      -0.44481567
H        3.73838338       4.48692759       1.54126112
H        5.97237669       2.66983949       0.41865437
H        6.14822743       4.01520382       1.70694800
