14
Properties=species:S:1:pos:R:3 -1522.3680483937253=T 11.296865=T 12.64692=T -10.499=T -8.1332=T -10.136=T 0.7348=T -0.3481=T 1.398=T 9.72465=T -1.05129=T 4.3577483406=T 10.6222029836=T 0.590499541=T pbc="F F F"
C        4.30607576      -0.66119802       2.66839229
C        4.20327748      -0.41834599       1.48337883
C        4.09690833      -0.09245008       0.06576189
C        4.36748410       1.39317193      -0.24295640
C        5.79003530       1.81778391       0.16494059
C        6.05463622       3.22479688      -0.11266300
N        6.24842307       4.35115997      -0.34600630
H        4.38632891      -0.88760606       3.71217278
H        3.08745072      -0.35217323      -0.29143452
H        4.79742580      -0.72576784      -0.50560456
H        3.63558358       2.01888581       0.28761693
H        4.22571003       1.56538566      -1.31969431
H        6.54105959       1.21324858      -0.36963625
H        5.94095111       1.63592847       1.24105201
