13
Properties=species:S:1:pos:R:3 -1344.2658462321858=T 12.17757=T 12.88875=T -9.4278=T -7.5241=T -9.159=T 0.5991=T -0.982=T -0.026=T 8.77654=T 0.75427=T 4.4193197882=T 11.264934009=T 0.335030773=T pbc="F F F"
C        0.93791335       0.22727555       0.00963441
C        2.40149383      -0.08222216      -0.00154804
N        3.34264045       0.82956549      -0.01000700
N        4.60488534       0.31515509      -0.01722349
C        4.64069057      -0.99476960      -0.01515135
C        5.90377381      -1.79639425      -0.02366424
S        3.04004118      -1.71890937      -0.00290018
H        0.33103159      -0.68489950      -0.00402168
H        0.67577910       0.83641376      -0.86611333
H        0.68156534       0.80503390       0.90823463
H        5.70021347      -2.87290462      -0.00830669
H        6.51625937      -1.54257712       0.85222477
H        6.49163260      -1.56375716      -0.92212781
