13
Properties=species:S:1:pos:R:3 -1300.655198627132=T 9.593181=T 10.10989=T -8.6359=T -6.6081=T -9.574=T 0.9376=T 0.0178=T 0.401=T 9.22811=T 0.16299=T 4.7202958032=T 9.6741068388=T 0.26295161=T pbc="F F F"
C        2.08968507      -0.13414877      -0.06797125
C        0.70883851      -0.79940290       0.05512460
N       -0.38337010      -1.28637844      -0.75402719
N       -1.50491554      -0.49646367      -0.34324922
C       -1.32943347       0.66330667       0.19952013
O       -0.14613825       1.39753981       0.44638560
C        0.81603991       0.64133169      -0.29003140
H        2.71845874      -0.19604740      -0.95790092
H        2.63085130      -0.14041315       0.87863474
H        0.50356676      -0.91069795       1.12986737
H       -0.65535926      -2.26029026      -0.59985527
H       -2.21072238       1.23280190       0.49591668
H        0.67085870       0.82011247      -1.35892388
