21
Properties=species:S:1:pos:R:3 -2068.1061191976273=T 12.780933=T 14.31599=T -10.2954=T -8.1372=T -11.705=T 0.9609=T 0.0835=T 2.951=T 11.4286=T -2.63512=T 9.9775129794=T 0.176472463=T pbc="F F F"
C        2.31908699      -0.43601221      -1.44928608
C        2.50340615       0.02912734       0.00033944
C        3.20001601      -1.04632859       0.84285460
C        3.25753976       1.35652966       0.06398293
C        2.60878424       2.63672023      -0.54030612
C        3.20022071       3.44707408       0.64307232
C        3.36270407       2.11424498       1.42028842
H        1.79759257       0.32061842      -2.05380264
H        1.73408799      -1.36657885      -1.49717081
H        3.29493716      -0.63050610      -1.92326152
H        1.49962929       0.20615867       0.43329562
H        4.20560087      -1.26144755       0.44623384
H        2.63078420      -1.98781345       0.83591717
H        3.31340707      -0.72956387       1.89008773
H        4.26945819       1.22204783      -0.36097342
H        1.50987285       2.58238308      -0.47760931
H        2.88952924       2.93118594      -1.56112891
H        4.17620520       3.88265658       0.38389730
H        2.57477706       4.23053369       1.09242897
H        4.26900051       1.97526004       2.02603232
H        2.48179988       1.90884007       2.04980813
