17
Properties=species:S:1:pos:R:3 -1693.6216892088544=T 10.577087=T 11.72844=T -9.4082=T -7.2361=T -10.874=T 1.0795=T -0.8453=T 0.014=T 9.99832=T 0.63621=T 3.6603642864=T 8.0468277846=T 0.125082373=T pbc="F F F"
C        1.33786745      -0.35034667      -0.08257715
C        2.84300560      -0.15559484       0.07289019
O        3.56571859      -0.93333131      -0.89792959
C        3.27941586       1.33557596       0.02627298
C        2.52397205       2.24784445       0.99225289
C        4.78850740       1.43609998       0.21994306
O        5.33786487       2.26732539       0.92147142
H        0.77719956       0.11809720       0.73718072
H        1.10740874      -1.42414406      -0.08654851
H        0.98004227       0.08752144      -1.02931964
H        3.15766216      -0.57653655       1.04358817
H        3.17881750      -0.74498735      -1.77279013
H        3.10583055       1.67381707      -1.01776689
H        2.55312273       1.84441531       2.01568922
H        1.47448150       2.37028738       0.69741697
H        2.99841174       3.23671420       1.02478508
H        5.38104144       0.67664242      -0.34428882
