17
Properties=species:S:1:pos:R:3 -1656.0184816060041=T 11.050078=T 12.13827=T -9.088=T -7.0041=T -10.487=T 0.7662=T -0.2177=T 0.615=T 9.6374=T 0.02689=T 4.3627449764=T 12.5832895456=T 0.1720318=T pbc="F F F"
C        1.77934448      -0.85751401       0.12116114
C        3.14609313      -0.51963406       0.70370995
N        3.71954418       0.66474975       0.04889661
C        5.01303941       1.07206159       0.60177383
C        5.78082216       2.05847408      -0.28869743
N        5.32789965       2.10775765      -1.57393441
O        6.72540085       2.71641775       0.14256008
H        1.36579694      -1.75697353       0.59747477
H        1.84917476      -1.03691682      -0.96092067
H        1.06298419      -0.03763770       0.28546460
H        3.84278973      -1.35803429       0.53691127
H        3.06299332      -0.39191940       1.80354118
H        3.05838165       1.44132850       0.15221649
H        5.65066160       0.17600334       0.68424142
H        4.96725545       1.51616364       1.61376128
H        4.57709330       1.47415794      -1.84202877
H        5.82522519       2.67316555      -2.25293133
