16
Properties=species:S:1:pos:R:3 -1487.217217158575=T 9.454738=T 10.41838=T -9.2762=T -6.9109=T -10.628=T 0.9902=T 0.0152=T 3.213=T 9.99678=T -2.97584=T 8.7649794938=T 11.5948111606=T 0.163836714=T pbc="F F F"
C        1.13730402      -0.29339225      -0.08766751
C        2.66210338      -0.16965928      -0.05489995
C        3.14583398       1.28114229       0.01298901
C        4.66779655       1.41693305       0.02551621
N        5.06349211       2.83019208       0.13910468
H        0.81954622      -1.34492011      -0.13679765
H        0.71502301       0.22407857      -0.96286585
H        0.68244589       0.15168700       0.81047218
H        3.08912111      -0.65742925      -0.94830363
H        3.05680637      -0.72522718       0.81345198
H        2.74247475       1.77538757       0.91254149
H        2.74250124       1.83850503      -0.85285925
H        5.08221361       0.90447958      -0.86832958
H        5.07104537       0.88739113       0.90525408
H        4.76497740       3.33749668      -0.69904619
H        6.08295499       2.90703508       0.16585997
