14
Properties=species:S:1:pos:R:3 -1451.8085541486746=T 11.574726=T 11.6101=T -8.0034=T -6.1563=T -8.318=T 0.5137=T -0.5187=T 0.153=T 7.75596=T 0.40511=T 4.4189974246=T 0.282982308=T pbc="F F F"
C        0.96784954      -0.10111137       0.04077767
C        2.47750478      -0.01739929       0.00641954
C        3.23678552      -1.20852257      -0.01231565
N        3.89176184      -2.18517369      -0.02075095
C        3.16383546       1.17835269      -0.01587727
N        2.53326402       2.40237747      -0.18255459
N        4.54003359       1.27634559       0.13671995
H        0.53692538       0.64079313       0.73265159
H        0.64945947      -1.08852432       0.39730992
H        0.51085376       0.04878778      -0.95131651
H        1.51821226       2.37153753      -0.14862107
H        2.92180677       3.15855356       0.37855226
H        5.01247536       0.37266825       0.14941980
H        4.98598225       1.93240523      -0.50319467
