12
Properties=species:S:1:pos:R:3 -1319.8717920373122=T 9.299433=T 10.09958=T -8.5362=T -6.4582=T -8.539=T 0.8445=T -0.1849=T 0.148=T 8.03574=T 0.46501=T 4.3171057298=T 7.0886763752=T 0.270988901=T pbc="F F F"
C        1.01685626      -0.01513377      -0.00629735
C        2.49691699       0.09269255      -0.00056369
N        3.22982670       1.17547120       0.00662104
C        4.52979860       0.71594971       0.00873119
O        5.53515707       1.63282418       0.01604455
C        4.54609590      -0.65078396       0.00275415
O        3.22149471      -1.06788301      -0.00330211
H        0.58945037       0.99241011       0.00143903
H        0.65737378      -0.56493483       0.87527132
H        0.66302206      -0.54859000      -0.90016629
H        6.38614288       1.16071472       0.01673318
H        5.30572467      -1.42177690       0.00199498
