14
Properties=species:S:1:pos:R:3 -1447.0630964891345=T 9.600708=T 10.55821=T -9.4536=T -7.3859=T -10.763=T 0.9806=T -0.1862=T 0.397=T 9.87275=T 0.28772=T 4.3472219292=T 13.0735549868=T 0.163511363=T pbc="F F F"
C        0.88873192       0.03266487       0.22611810
C        2.38322323       0.02142862      -0.03543773
N        3.18904031       0.96256325       0.78529471
C        4.06905154       0.01585883       1.25610532
O        5.10600806       0.06541396       1.89086586
C        3.24026912      -1.12009699       0.59193017
O        3.92905113      -1.91982376      -0.34961764
H        0.40158637      -0.77987468      -0.33164304
H        0.43512375       0.97954056      -0.10076854
H        0.67472520      -0.09838818       1.29647564
H        2.61261895       0.11137692      -1.10916067
H        3.24893566       1.98096269       0.77945794
H        2.67325023      -1.72548507       1.32288353
H        4.75502454      -2.21750103       0.07456637
