18
Properties=species:S:1:pos:R:3 -1728.6639738957447=T 11.27222=T 12.29548=T -8.6138=T -6.5734=T -9.957=T 0.8884=T -0.0534=T 3.052=T 9.15229=T -2.78119=T 7.6955506494=T 11.070771933=T 0.153204973=T pbc="F F F"
C        1.12294109       0.04665060       0.14208138
N        2.56163784      -0.04591541      -0.09672129
C        2.83780743      -0.77554437      -1.33234818
C        3.16406854       1.27706418      -0.13390831
C        3.22636794       2.05290591       1.19705439
O        4.65684416       2.28372636       1.03840012
C        4.70329776       1.34442699      -0.07531607
H        0.93251840       0.56504490       1.09268963
H        0.69748027      -0.96413200       0.21689825
H        0.58422196       0.59140736      -0.66548569
H        2.41812007      -1.78904469      -1.26185141
H        3.92338235      -0.86839385      -1.47913556
H        2.40586024      -0.28247361      -2.23203926
H        2.75200550       1.90029460      -0.95928675
H        3.01253661       1.41779528       2.07484740
H        2.66712898       2.99870010       1.26375795
H        5.22949414       1.76955291      -0.94369419
H        5.16424674       0.38570473       0.22128758
