15
Properties=species:S:1:pos:R:3 -1455.808419484369=T 10.665622=T 11.34837=T -9.046=T -7.058=T -10.088=T 0.8195=T -0.3188=T 0.782=T 9.3989=T -0.24893=T 4.8853335678=T 12.0054651912=T 0.267268809=T pbc="F F F"
O        0.89174653       0.73826002      -0.33827277
N        2.09625039       0.95216398      -1.09772601
C        2.31807893      -0.09739945      -2.01127189
N        1.50227285      -0.99099349      -2.41968914
C        3.18971404       1.31705180      -0.22994724
C        4.28595963       2.16381884      -0.83159896
C        3.32423064       2.76541341       0.16271235
H        0.36086498       1.53088842      -0.54379754
H        3.33430832      -0.04128594      -2.42418798
H        0.61266629      -0.90193095      -1.90506017
H        3.47611060       0.56401918       0.51246147
H        4.17261190       2.45830307      -1.87469340
H        5.30784101       1.95130757      -0.51875650
H        3.67511749       2.98058414       1.17147151
H        2.57584640       3.45574942      -0.22677373
