13
Properties=species:S:1:pos:R:3 -1327.2403539661982=T 11.297815=T 10.75201=T -7.5143=T -5.6572=T -8.4=T 1.1019=T -0.5305=T 0.502=T 7.78487=T 0.01649=T 4.799064109=T 0.382909169=T pbc="F F F"
N        1.23182933      -0.09827529      -0.69280620
C        2.31604065       0.07507790      -0.01431447
N        2.87828649       1.31745438       0.10194557
O        4.08194066       1.43972605       0.87026459
C        4.44842036       2.85508235       0.82098906
C        3.37876064       3.49946057      -0.01466340
C        2.50782537       2.54823592      -0.39356930
H        0.96698975      -1.08646550      -0.66517560
H        2.90479910      -0.67951082       0.52765889
H        5.46075171       2.93225533       0.38112171
H        4.48854581       3.23518591       1.85930338
H        3.33336499       4.55477365      -0.26064689
H        1.60605514       2.59533954      -0.99706734
