13
Properties=species:S:1:pos:R:3 -1449.023799999968=T 12.733343=T 12.47266=T -9.4093=T -7.523=T -9.366=T -0.9056=T -2.5021=T -1.186=T 8.822=T 1.77256=T 3.3243622264=T 11.2456913818=T 0.497257174=T pbc="F F F"
C        0.93187834       0.13860808      -0.07207949
C        2.43151320      -0.03195595      -0.02072118
C        3.09939000      -1.21818013       0.09288547
C        2.48335693      -2.53986705       0.18533874
O        3.13618924      -3.57504556       0.28808157
C        3.17853007       1.17593455      -0.09932763
C        3.77310878       2.23613972      -0.16959887
H        0.60503377       0.78749681       0.75341393
H        0.39088542      -0.80988767      -0.00960660
H        0.64889577       0.64640312      -1.00552708
H        4.19120767      -1.21441711       0.12071739
H        1.36787252      -2.58375706       0.15867545
H        4.31635830       3.15772823      -0.22558169
