16
Properties=species:S:1:pos:R:3 -1614.2155833581653=T 12.244656=T 12.94289=T -9.2279=T -7.0845=T -10.163=T -0.0913=T -1.8497=T -0.808=T 9.52365=T 1.39526=T 3.4407726818=T 5.3812031762=T 0.575922455=T pbc="F F F"
C        1.22970464      -0.42649262       0.09511307
N        2.68444478      -0.29719508       0.02157172
C        3.11314936       1.04823154      -0.36059282
C        4.60369866       1.16433663      -0.32883601
C        5.36839082       1.70439632      -1.29725226
C        6.82627366       1.78412549      -1.15022686
O        7.58357294       2.26683776      -1.98206168
H        0.96804586      -1.46993391       0.31588659
H        0.69713710      -0.12051829      -0.82922483
H        0.85027904       0.19399931       0.92146326
H        3.05198232      -0.96649139      -0.65920830
H        2.70184257       1.74620057       0.39414736
H        2.72030816       1.38663280      -1.34383254
H        5.08695770       0.76501192       0.57163584
H        4.94054841       2.10272975      -2.22220286
H        7.22037398       1.35529919      -0.19137968
