12
Properties=species:S:1:pos:R:3 -1293.0125903128067=T 9.411495=T 10.1605=T -9.4935=T -7.3637=T -10.152=T 1.0099=T -0.8284=T 0.113=T 9.71649=T 0.63038=T 3.724787412=T 10.7404856276=T 0.699065885=T pbc="F F F"
C        1.04829620       0.03864430       0.27817055
C        2.38273207       0.01279606      -0.42034978
O        2.66771773      -0.79493046      -1.28742430
C        3.41998302       1.09697296      -0.03483734
C        3.30226093       1.67458407       1.29336000
C        3.20254266       2.14371122       2.40857663
H        0.61025339       1.04704831       0.23759311
H        1.19059285      -0.18699906       1.34569233
H        0.37498174      -0.69500811      -0.17666396
H        3.31207139       1.89008540      -0.79687309
H        4.41636614       0.65805070      -0.19287909
H        3.11996188       2.55731460       3.39295493
