16
Properties=species:S:1:pos:R:3 -1593.5933176371773=T 10.569273=T 11.92267=T -9.5092=T -7.3208=T -11.003=T 0.8332=T -0.1167=T 2.86=T 10.71493=T -2.47523=T 8.7268290016=T 11.2551143178=T 0.140763151=T pbc="F F F"
O        1.22636765      -0.26546478       0.19177372
C        2.60927987      -0.14487703      -0.06772892
C        3.06703142      -0.55957889      -1.42963167
C        3.11512611       0.90532074      -1.03752484
C        4.39763832       1.63449840      -0.78534190
C        5.72421294       0.97058886      -0.64610860
N        5.38964753       1.69715766      -1.88869983
H        0.98041142       0.43627576       0.82055924
H        3.26273018      -0.39320795       0.77723242
H        2.28751120      -0.84357215      -2.13635959
H        3.99842194      -1.11829352      -1.52149807
H        2.32781434       1.51484087      -1.49043334
H        4.27625407       2.54888263      -0.19191930
H        5.81453503      -0.11158175      -0.76723995
H        6.43864939       1.40930623       0.05552959
H        5.84949860       2.61291491      -1.88602897
