20
Properties=species:S:1:pos:R:3 -1880.9757746191926=T 11.732149=T 12.78138=T -8.6083=T -6.6139=T -9.671=T 0.8188=T -0.1159=T 2.952=T 8.84241=T -2.64942=T 7.3828331602=T 10.851502692=T 0.120610079=T pbc="F F F"
C        0.82687761      -0.45280740      -0.00138686
C        2.28973238      -0.04790865      -0.21813603
C        2.97334295      -0.90863313      -1.29362814
O        4.29621205      -0.45228790      -1.53692909
N        2.53462644       1.37819373      -0.54940419
C        1.71560226       1.89899657      -1.64477326
C        2.47706778       2.25737748       0.61467435
H        0.34248544       0.16718416       0.76643188
H        0.77286916      -1.49781677       0.33708104
H        0.23891781      -0.37360236      -0.92741981
H        2.84526821      -0.21674347       0.72009742
H        2.37005644      -0.90080141      -2.22596838
H        3.02395693      -1.95412234      -0.95003966
H        4.22723652       0.51599937      -1.36122410
H        1.77954052       1.23649981      -2.51840880
H        2.10272188       2.88389476      -1.94377594
H        0.64610074       2.02262440      -1.37708127
H        3.14855654       1.87982629       1.39839567
H        1.45797481       2.35843249       1.04512272
H        2.81823354       3.26350437       0.32896246
