13
Properties=species:S:1:pos:R:3 -1408.402220599741=T 9.97609=T 10.33873=T -9.7298=T -7.7277=T -10.551=T 1.2225=T -0.5193=T -0.12=T 10.06708=T 0.68581=T 4.2641513092=T 6.0912214038=T 0.314631511=T pbc="F F F"
N        1.11968254      -0.06279582       0.47637168
C        2.32837675      -0.02482088       0.06391420
C        3.14028309       1.25532114      -0.07602973
C        4.47732244       0.83391335      -0.70541373
C        4.43387806      -0.69069020      -0.77736153
O        5.30519913      -1.45453215      -1.15373663
N        3.16849342      -1.07519553      -0.33150105
H        0.75007219      -1.02230385       0.50758299
H        3.26521773       1.69704623       0.92220705
H        2.57619381       1.97862090      -0.67795693
H        4.61455858       1.21579040      -1.72708967
H        5.36063796       1.13837429      -0.12920832
H        2.89758429      -2.05668787      -0.31481832
