17
Properties=species:S:1:pos:R:3 -1750.8171638514334=T 11.207897=T 12.52739=T -9.1955=T -7.1458=T -10.499=T 1.0502=T -0.7502=T 0.336=T 9.63401=T 0.43434=T 3.7529074368=T 10.785480147=T 0.109864091=T pbc="F F F"
C        2.25658602      -0.48032914      -1.51678468
C        2.40171857       0.06829688      -0.09590672
C        3.28154078       1.31030181      -0.01661316
C        2.72875765       2.62593436      -0.65897016
C        3.07509043       3.34813707       0.65041499
O        3.15519279       4.51322690       0.96788462
C        3.38628286       2.02751535       1.36756392
H        1.60855875      -1.36774886      -1.53901195
H        3.23413934      -0.76912739      -1.93203243
H        1.81775976       0.26958951      -2.19230297
H        2.82094381      -0.71153671       0.56231849
H        1.40499749       0.31249299       0.31354984
H        4.28565425       1.08623776      -0.41044038
H        1.63859730       2.60039692      -0.82327368
H        3.20942838       3.01915319      -1.56523084
H        4.34012393       1.98900695       1.91156088
H        2.57579790       1.74753241       2.06057426
