18
Properties=species:S:1:pos:R:3 -1745.8920972281694=T 11.347325=T 12.75322=T -9.4014=T -7.0873=T -10.706=T 0.9058=T -0.0529=T 2.976=T 10.06406=T -2.68765=T 8.6592938274=T 11.0904733084=T 0.153184784=T pbc="F F F"
N        1.91771437      -0.29925287       1.31075493
C        2.19763510       0.23077845      -0.03170907
C        3.23765247       1.32551631       0.03795753
C        3.34727216       2.34940484      -1.06518104
C        2.81736960       2.75630265       0.29791834
C        3.64919396       3.64854449       1.18416295
O        3.50543069       5.04201071       0.87298341
H        1.24801888      -1.06944090       1.25282356
H        1.47708601       0.42629524       1.88259313
H        1.30607430       0.62508848      -0.56434117
H        2.58733028      -0.60037587      -0.64316637
H        4.17733996       1.01640161       0.50465313
H        2.63795843       2.29125038      -1.89243904
H        4.34900423       2.68022361      -1.34773349
H        1.73972831       2.94094693       0.34888405
H        4.71127257       3.33792982       1.12639006
H        3.33627916       3.55566330       2.23548460
H        3.67137951       5.13695283      -0.08240553
