17
Properties=species:S:1:pos:R:3 -1650.1501550306218=T 12.744411=T 12.75867=T -7.885=T -6.0558=T -8.521=T 1.4471=T -0.207=T 0.725=T 7.8146=T -0.14178=T 4.6061542916=T 6.7899941012=T 0.339674734=T pbc="F F F"
C        1.08678890       0.12234769       0.65453476
N        2.35557538      -0.08802884      -0.02913644
C        2.60937361      -1.43354148      -0.56117693
C        1.80642533      -1.75625692      -1.79470374
C        0.96547678      -2.79202182      -1.88988418
N        2.87746100       1.02498012      -0.58731853
C        3.79596772       0.97338137      -1.49722107
H        1.09520959       1.13570283       1.07069766
H        0.98375226      -0.60659690       1.47203906
H        0.21711754       0.01856350      -0.01971793
H        2.37612099      -2.15324037       0.23841475
H        3.69111269      -1.51622259      -0.76048358
H        1.91925535      -1.07020424      -2.64003493
H        0.82671682      -3.49084706      -1.05991118
H        0.39273728      -2.98482417      -2.79850280
H        4.20427982       1.93105681      -1.82034115
H        4.19834894       0.05761208      -1.94922377
