13
Properties=species:S:1:pos:R:3 -1423.116776703532=T 10.093708=T 10.65653=T -7.858=T -5.835=T -8.116=T 0.9484=T 0.0812=T 0.501=T 7.68197=T 0.03372=T 4.3668737102=T 6.8500157238=T 0.451431877=T pbc="F F F"
C        3.24942986      -1.04477073       0.53530514
O        2.40161731       0.09027935       0.28090176
C        3.00832943       1.28607246       0.16892895
C        2.47059921       2.52395504      -0.06795628
C        3.58732185       3.42533421      -0.08429538
C        4.70962416       2.68574558       0.14023679
O        4.36635245       1.34795583       0.30053119
H        2.57197063      -1.90296140       0.59055779
H        3.78895239      -0.92841757       1.48632118
H        3.97273468      -1.18720111      -0.28053373
H        1.42035340       2.75009865      -0.20997144
H        3.55383886       4.49870475      -0.24500082
H        5.76725576       2.90438494       0.21775485
