12
Properties=species:S:1:pos:R:3 -1355.1720734680264=T 10.181547=T 10.79113=T -9.12=T -7.0266=T -9.364=T 0.3526=T -1.3947=T -0.24=T 8.94153=T 0.70404=T 4.9973053244=T 11.1989362612=T 0.235611081=T pbc="F F F"
N        0.96287478       0.08137665       0.05492225
C        2.13008567       0.03959098       0.01272955
C        3.55095687      -0.03657252      -0.03391167
C        4.32074683      -1.14223720      -0.04596293
C        5.76422223      -0.70925225      -0.01489244
C        5.63571383       0.80566384      -0.28275793
O        4.23239503       1.15977460      -0.04298711
H        3.95515784      -2.16374260      -0.01546634
H        6.21729273      -0.92935117       0.96757862
H        6.38115775      -1.20781545      -0.77641894
H        5.85551962       1.05369949      -1.33285071
H        6.24359681       1.43539563       0.37728765
