11
Properties=species:S:1:pos:R:3 -1239.168096983239=T 10.451646=T 10.20306=T -9.5185=T -7.5361=T -9.162=T -0.3829=T -2.061=T -0.588=T 8.7044=T 1.19115=T 5.0183457486=T 0.612655719=T pbc="F F F"
C        2.83375096      -1.13154354       0.68162956
C        2.25921356       0.03534309       0.34784171
C        2.98551965       1.26016342      -0.00276642
C        2.36759142       2.41841296      -0.33429312
C        4.42228270       1.20967873       0.01181050
N        5.58834958       1.13732042       0.03265067
H        2.22777047      -2.00199565       0.93055516
H        3.91900333      -1.24614895       0.71404812
H        1.16963458       0.12493661       0.32228726
H        1.27895535       2.47549344      -0.35066648
H        2.93274841       3.31265947      -0.59015697
