14
Properties=species:S:1:pos:R:3 -1467.430846998797=T 11.067833=T 11.65607=T -9.4478=T -7.3483=T -9.834=T 0.5569=T -1.2901=T -0.204=T 9.97531=T 0.83354=T 3.66812581=T 6.1784331562=T 0.309062323=T pbc="F F F"
C        1.82354909      -0.28571270      -1.29777110
C        2.34417630       0.12935036      -0.13623586
C        3.42876537       1.12966030       0.01514987
N        3.89523035       1.98327457      -1.06900014
C        3.07499900       2.60815962       0.00016460
C        3.80540395       3.52433515       0.91432685
O        3.26953800       4.38408004       1.59129012
H        1.01867924      -1.02001029      -1.32304219
H        2.18223192       0.07688981      -2.26426786
H        1.97592764      -0.29550556       0.80309549
H        4.22702033       0.83874570       0.70837317
H        3.30144170       1.85966595      -1.89656295
H        2.02800538       2.85478222      -0.19411010
H        4.91230174       3.34838482       0.94276009
