19
Properties=species:S:1:pos:R:3 -1871.9941929216232=T 12.358921=T 13.52833=T -8.7501=T -6.6877=T -9.459=T 0.9131=T 0.0073=T 1.213=T 8.98621=T -0.72704=T 6.4042116622=T 0.35723966=T pbc="F F F"
C        0.78107375      -0.25273865       0.25984235
C        2.28016469      -0.35181944      -0.04648574
C        2.54171494      -1.14323673      -1.33234957
C        2.87441837       1.05244333      -0.11859947
O        4.30053318       0.95441250      -0.26875563
C        4.97822101       2.13001166      -0.38399103
C        4.48931530       3.38056987      -0.37168232
H        0.59105810       0.28622245       1.20005360
H        0.33644562      -1.25387236       0.35059739
H        0.24661095       0.27447881      -0.54677537
H        2.77541347      -0.87141546       0.79296730
H        2.05113331      -0.66014342      -2.19314558
H        2.14406059      -2.16524858      -1.25034794
H        3.61650840      -1.20893291      -1.54712067
H        2.64733444       1.62282516       0.80052325
H        2.45502350       1.60693551      -0.98013074
H        6.04634922       1.92900329      -0.49592137
H        3.43265763       3.61533731      -0.26008818
H        5.18441353       4.21065765      -0.47921028
