12
Properties=species:S:1:pos:R:3 -1337.5612387238004=T 8.942981=T 9.56356=T -9.5915=T -7.5389=T -11.082=T 0.4675=T -1.421=T -0.376=T 10.26876=T 1.10502=T 3.6938281078=T 6.3723348616=T 0.143361474=T pbc="F F F"
O        1.19223374      -0.02319159       0.67915612
C        2.31502655      -0.02351188       0.21968380
C        3.13847058       1.24672025      -0.05817582
N        4.38082617       0.72475771      -0.59497314
C        4.47299542      -0.64703406      -0.69684809
O        5.43749408      -1.26526034      -1.12333602
C        3.15506173      -1.22393356      -0.18005587
H        3.27066390       1.81021583       0.88058271
H        2.59183846       1.88997485      -0.76777311
H        5.16116234       1.30621804      -0.88916728
H        2.65355374      -1.82112837      -0.95522106
H        3.32539329      -1.89318688       0.67565775
