16
Properties=species:S:1:pos:R:3 -1615.371071241331=T 10.604312=T 11.82915=T -10.238=T -8.0941=T -11.511=T 0.7057=T -0.2736=T 1.467=T 11.48544=T -1.05027=T 5.3874768678=T 11.4327118642=T 0.227005589=T pbc="F F F"
C        1.04529717      -0.27759132       0.01282122
O        2.45113685      -0.03579133       0.01531952
C        2.85099901       1.35215852      -0.00026357
C        2.39913050       2.07688826      -1.28265326
C        2.39845236       2.10482935       1.26570789
C        4.33095227       1.29101281       0.00069472
N        5.49629131       1.30258483       0.00074565
H        0.93927864      -1.36906016       0.02909087
H        0.55119007       0.10828523      -0.89481776
H        0.54302293       0.13580062       0.90371376
H        2.69961805       1.50287347      -2.16818359
H        2.85861097       3.07222228      -1.33578420
H        1.30888999       2.20575117      -1.28479832
H        2.69937703       1.55070083       2.16364439
H        1.30808855       2.23265794       1.26496030
H        2.85696429       3.10154749       1.29687238
