15
Properties=species:S:1:pos:R:3 -1523.2040311170483=T 11.145271=T 11.8414=T -9.3225=T -7.3111=T -9.752=T 0.8454=T -0.3454=T 0.573=T 9.71266=T 0.05524=T 4.6877370796=T 6.6966202446=T 0.334111613=T pbc="F F F"
N        1.37188424       2.71932240       1.07349199
C        2.31722472       2.20942909       0.17651927
O        2.01587747       1.44826913      -0.74094102
N        3.61414935       2.62410813       0.43672532
C        4.73978065       2.01894799      -0.27060033
C        5.79781909       3.03485074      -0.58838880
C        7.08010062       2.92736306      -0.22289684
H        1.54311788       3.65312388       1.44048061
H        0.42361712       2.59167598       0.72831524
H        3.80918336       3.00269276       1.36010546
H        4.31150475       1.59415799      -1.19190428
H        5.17356484       1.18062001       0.30321310
H        5.46129567       3.90506066      -1.16226754
H        7.43585209       2.06994024       0.35477433
H        7.81880814       3.68141795      -0.49734652
