19
Properties=species:S:1:pos:R:3 -1838.9355574766132=T 12.166193=T 13.10305=T -8.9049=T -6.9027=T -9.872=T 0.7394=T -0.2275=T 1.079=T 9.11112=T -0.47192=T 4.89620714=T 6.3877339228=T 0.188949647=T pbc="F F F"
C        0.91850137       0.08127582       0.04690804
C        2.43570949      -0.08582107      -0.09690478
C        2.78481038      -1.00127357      -1.27548570
C        3.11300729       1.29856991      -0.22760129
C        4.63050666       1.25808517      -0.28412443
N        5.24257124       0.93133227       0.91819860
N        5.37137671       1.53125067      -1.30376343
H        0.66064760       0.70635689       0.91477073
H        0.42366594      -0.89301069       0.17160436
H        0.49217323       0.55894793      -0.84979593
H        2.80586812      -0.56607539       0.82872158
H        2.40554623      -0.57795427      -2.21983348
H        2.32975029      -1.99455269      -1.14927400
H        3.87066601      -1.13252055      -1.38289380
H        2.80505574       1.93165934       0.62169744
H        2.74609255       1.78801435      -1.14375747
H        4.72188937       0.35622555       1.57255268
H        6.22947861       0.69772150       0.83291608
H        4.78422318       1.82436884      -2.09221521
