15
Properties=species:S:1:pos:R:3 -1569.7301125057475=T 11.278767=T 12.06837=T -8.5748=T -6.6497=T -8.697=T 0.8471=T 0.0054=T 0.55=T 8.12755=T 0.02182=T 4.76292219=T 6.2639215032=T 0.291007248=T pbc="F F F"
C        0.97627247      -0.01855911      -0.00954305
N        2.42722773       0.02117257       0.00174513
C        3.23724034       1.12090615       0.00787464
C        4.55081956       0.66635900       0.01558922
C        5.80911432       1.48097491       0.02590649
C        4.41381685      -0.74344730       0.01311226
N        3.12986581      -1.13452337       0.00444835
H        0.59384313       1.00799968      -0.00223992
H        0.60680911      -0.55102800       0.87686075
H        0.61918601      -0.53373936      -0.91122504
H        2.82882703       2.12751174       0.00638433
H        5.58701082       2.55639229       0.01233916
H        6.43945184       1.26202192      -0.84906858
H        6.41413814       1.27924311       0.92273181
H        5.19921684      -1.49627422       0.01720445
