15
Properties=species:S:1:pos:R:3 -1583.7345295244234=T 11.176863=T 11.77734=T -8.2916=T -6.3716=T -8.09=T 0.6654=T -0.3026=T 0.837=T 7.62243=T -0.14129=T 4.588597874=T 9.2434786636=T 0.334085048=T pbc="F F F"
C        2.50873659      -0.60784028      -1.41001252
C        2.40765616       0.05284323      -0.02477083
C        2.92066673       1.45652305       0.02606649
C        2.29019129       2.67261576       0.20690251
N        3.18771055       3.72125345       0.16053993
C        4.36354382       3.15701467      -0.04821229
N        4.25780807       1.79006430      -0.13828034
H        2.09372592      -1.62554180      -1.38792853
H        3.55252543      -0.68307135      -1.74954886
H        1.95667428      -0.02548671      -2.16073348
H        2.93415663      -0.56962633       0.71979476
H        1.35503191       0.07699765       0.29447379
H        1.22883245       2.84197616       0.37167181
H        5.31558383       3.67285346      -0.14067383
H        5.02047635       1.13737473      -0.29124861
