10
Properties=species:S:1:pos:R:3 -1105.3126499324183=T 10.179384=T 10.14254=T -10.1079=T -8.2086=T -10.998=T -0.9263=T -2.7538=T -1.879=T 9.9389=T 2.31109=T 3.1154458164=T 5.6386849024=T 0.298525427=T pbc="F F F"
O        1.16628470       0.26344599      -0.43384014
N        2.37406537       0.94976576      -0.39080197
C        3.12169090       0.52805878       0.57025345
C        4.45388865       1.14090215       0.77685305
O        5.18212734       0.75091246       1.69075017
C        4.86636496       2.20125806      -0.12177353
C        5.27848123       3.09303994      -0.83619171
H        0.71241474       0.67869450      -1.19204587
H        2.82756886      -0.27242840       1.25897732
H        5.63989325       3.87990077      -1.46729077
