15
Properties=species:S:1:pos:R:3 -1540.9679046098524=T 9.856813=T 10.95719=T -9.6174=T -7.3404=T -11.116=T 1.0086=T -1.0531=T -0.201=T 10.26864=T 0.81943=T 3.6709402922=T 12.0395117468=T 0.161883892=T pbc="F F F"
O        2.45984328      -1.36703652       1.14419367
C        2.13564956      -0.20091941       1.27755205
C        2.98264911       0.98010709       0.87009141
C        4.33045209       0.60925605       0.27408236
C        5.31175690       1.77700725       0.03123022
O        6.21315951       1.30433476       1.07166840
C        5.39917386       0.10982232       1.27113710
H        1.14508260       0.06799388       1.72948764
H        3.09555108       1.62706158       1.76102337
H        2.37561207       1.58031822       0.16530013
H        4.18866618      -0.05467622      -0.58842296
H        4.93011062       2.78948667       0.24978217
H        5.79925868       1.77924094      -0.95874326
H        5.93275031      -0.80381417       0.96352281
H        5.07538414       0.00643756       2.31983488
