13
Properties=species:S:1:pos:R:3 -1389.6915534395673=T 12.205629=T 13.30924=T -9.5222=T -7.3933=T -9.925=T 0.3031=T -1.5204=T 0.149=T 9.52198=T 0.19117=T 3.6176139136=T 8.0121117046=T 0.885867168=T pbc="F F F"
C        0.99777099      -0.01705236      -0.00022340
N        2.45741087      -0.00765330       0.08956323
C        2.99405444       1.35492918       0.02405677
C        4.44680055       1.37271217       0.02172720
C        5.66622885       1.38823956      -0.00564471
C        7.02967915       1.40653034      -0.03808054
N        8.20370834       1.42139689      -0.07080359
H        0.64678285      -1.05679858      -0.01754950
H        0.59167101       0.50657599      -0.89046214
H        0.57363459       0.46206282       0.89538078
H        2.85725348      -0.55740563      -0.67447389
H        2.63739427       1.90988552       0.91081068
H        2.64033061       1.93361740      -0.86044089
