13
Properties=species:S:1:pos:R:3 -1415.407579215641=T 10.122136=T 11.37639=T -10.2788=T -7.9844=T -10.155=T 0.6019=T -0.493=T -0.055=T 10.46397=T 0.68311=T 4.311799129=T 10.6225129486=T 0.817140916=T pbc="F F F"
O        1.05655055      -0.19894021       0.03684596
C        2.42713711      -0.26611482       0.06826105
O        2.97532883      -1.33758808       0.18687865
C        3.14091033       1.07210483      -0.05453520
C        4.67009901       0.92226922      -0.01608324
C        5.35145201       2.20438485      -0.13313261
C        5.89904861       3.28347860      -0.22730438
H        0.77768932       0.73173987      -0.06231476
H        2.80555095       1.73289864       0.76157303
H        2.83237223       1.55823955      -0.99450715
H        4.98986680       0.24885503      -0.82625086
H        4.96297064       0.42346934       0.92072164
H        6.39475361       4.22895319      -0.31164212
