18
Properties=species:S:1:pos:R:3 -1787.9734076837392=T 11.672717=T 12.82759=T -8.4376=T -6.3484=T -9.928=T 0.9739=T 0.086=T 2.925=T 9.22453=T -2.63012=T 7.884951663=T 10.7830500214=T 0.149583754=T pbc="F F F"
C       -1.75720219       0.71266454       0.28910513
C       -1.78967933      -0.72808694      -0.33829480
C       -0.28181422      -0.80977838       0.05693347
C        1.06901982      -1.19368696      -0.52297538
N        1.95167154      -0.08630377       0.00886322
C        1.10444551       1.05080261       0.54652086
C       -0.24158301       0.70722285      -0.06678325
H       -2.38819168       1.49017995      -0.16140761
H       -1.93658064       0.67339848       1.37400689
H       -1.93869968      -0.67954181      -1.42726564
H       -2.47502809      -1.46830115       0.09542221
H       -0.26407314      -1.04720135       1.13836603
H        1.46441324      -2.16942344      -0.20365021
H        1.06370571      -1.16975955      -1.62636268
H        2.53070679      -0.45605111       0.76248544
H        1.05973593       1.05116757       1.64982736
H        1.52613577       2.01139730       0.21286204
H       -0.18499234       0.94090115      -1.14700309
