14
Properties=species:S:1:pos:R:3 -1451.8238176543666=T 9.601133=T 10.72053=T -10.0089=T -7.8589=T -11.427=T 0.8698=T -0.111=T 0.347=T 10.37799=T 0.20757=T 4.8842176938=T 11.8625961234=T 0.257954182=T pbc="F F F"
N        1.32166824       2.04293865      -1.45615074
C        2.45151231       2.17041844      -0.68304546
O        2.63547853       3.02304958       0.16747044
O        3.35874557       1.19668394      -1.04082450
C        4.62178759       1.29434889      -0.38287289
C        5.69449511       0.42198525      -0.94902227
C        5.75957115       1.93090973      -1.12511600
H        1.17483330       1.16820219      -1.94933260
H        0.50215214       2.53061161      -1.11296657
H        4.53860007       1.44304984       0.69366526
H        5.43462405      -0.16548811      -1.82964343
H        6.37959682      -0.06433951      -0.25480979
H        6.48469415       2.50514170      -0.54862037
H        5.54157097       2.32107781      -2.11902107
