17
Properties=species:S:1:pos:R:3 -1657.7214750910318=T 11.008602=T 11.99252=T -8.9702=T -6.9688=T -10.406=T 0.7031=T -0.3129=T 0.683=T 9.45796=T -0.00130999999999=T 4.3752055694=T 12.6206465274=T 0.184544749=T pbc="F F F"
C        2.46856548      -0.74809664      -1.48679695
C        2.66457893      -0.16045767      -0.08866307
N        3.28809799       1.15325761      -0.10728274
C        4.54043546       1.39596999       0.36761641
O        5.28703522       0.55298012       0.87168321
C        4.97198152       2.86781221       0.26039286
N        4.10258229       3.67566692      -0.61079038
H        1.99147910      -1.73682653      -1.42146063
H        3.43456830      -0.86499295      -1.99745125
H        1.82583077      -0.10573559      -2.10728231
H        3.32602743      -0.80131234       0.51129104
H        1.69711068      -0.09323619       0.43616738
H        2.81031594       1.97164797      -0.49193338
H        6.03690955       2.86121408      -0.02613469
H        4.92652008       3.27136451       1.28310707
H        4.44710581       3.65730895      -1.57296917
H        4.10723544       4.65358554      -0.31868343
