17
Properties=species:S:1:pos:R:3 -1600.5912234985262=T 11.666013=T 12.33799=T -8.9007=T -6.919=T -10.109=T 1.0427=T -0.2441=T 0.738=T 9.51712=T -0.04022=T 5.5080284556=T 6.3327337332=T 0.220129733=T pbc="F F F"
C        5.85805173      -0.86251564       0.00710548
O        6.31389385       0.37177122      -0.55511784
N        5.44331051       1.40143154      -0.12255434
C        5.81875559       2.55449603      -0.56651166
C        7.03108435       2.80317571      -1.41230079
C        4.92336934       3.70823864      -0.18473777
N        5.68268723       4.72355095       0.56616476
H        5.89154894      -0.83334826       1.10721699
H        6.55000031      -1.62763193      -0.36698999
H        4.83282480      -1.09134600      -0.32230812
H        6.87337005       2.40657792      -2.42792682
H        7.90531885       2.27762055      -1.00362967
H        7.24129867       3.87761538      -1.46423676
H        4.04106191       3.29829058       0.33876932
H        4.56600869       4.18737734      -1.11338221
H        5.88267874       4.37116042       1.50588835
H        5.11314643       5.56378555       0.68545107
