13
Properties=species:S:1:pos:R:3 -1379.0576408710908=T 10.368162=T 10.40801=T -8.3616=T -6.3824=T -8.767=T 1.2933=T -0.2799=T 0.675=T 8.21915=T -0.23271=T 5.1187372128=T 0.20959168=T pbc="F F F"
N        0.93465842      -0.05797743       0.03763412
C        2.21189797       0.01295684       0.01874986
N        2.96584297      -1.11679640      -0.30931075
C        4.32111950      -1.21057309       0.00007932
C        5.04340615      -0.08754938       0.14876317
C        4.31962423       1.19712376      -0.08922696
O        2.92697059       1.12375549       0.36408675
H        0.53681409       0.86150725       0.25375238
H        2.40309740      -1.95733706      -0.39775785
H        4.71836964      -2.21872132       0.11234722
H        6.09144519      -0.10433415       0.43581586
H        4.74735141       2.03810075       0.47013026
H        4.30211245       1.46570474      -1.16217338
