17
Properties=species:S:1:pos:R:3 -1639.2628752100798=T 10.616946=T 11.86974=T -9.2664=T -6.9167=T -10.628=T 0.9802=T 0.0216=T 3.191=T 9.99879=T -2.87277=T 8.7632932842=T 11.3970162948=T 0.194854676=T pbc="F F F"
N        0.81035786       0.19996568      -0.21784142
C        2.26507280       0.00789005      -0.33727105
C        3.01841418       1.06417118       0.47469769
C        4.52050084       0.88236745       0.43535702
C        5.33070062       1.45086709      -0.70884405
C        5.44093374       2.05564189       0.67322906
H        0.31939154      -0.53865212      -0.72683855
H        0.54171488       1.07853440      -0.67031801
H        2.64073865       0.02319372      -1.38082155
H        2.50214095      -0.99038058       0.06756000
H        2.65315209       1.03421715       1.51477971
H        2.76813736       2.06844824       0.08579521
H        4.87273777      -0.07626394       0.82882218
H        4.79507098       2.02238860      -1.46948285
H        6.17471454       0.87426302      -1.08863995
H        6.35946540       1.88927792       1.23678971
H        4.98038580       3.03141024       0.83802684
