13
Properties=species:S:1:pos:R:3 -1348.8044045223032=T 12.585558=T 12.83434=T -7.6135=T -5.8068=T -8.032=T 0.8873=T -0.7199=T -0.092=T 7.42314=T 0.73317=T 3.8239390162=T 11.5431957888=T 0.290683276=T pbc="F F F"
C        2.89207621      -1.13414837       0.49873621
N        2.31642400       0.06284898      -0.10877350
C        3.00862295       1.26560477      -0.03812664
C        2.45813191       2.53227686      -0.17227452
S        3.71231384       3.72371174      -0.12007856
C        4.87335971       2.45026526       0.09599289
N        4.37800763       1.23720872       0.12080323
H        2.24129978      -1.98680851       0.26793062
H        3.01002574      -1.05734822       1.59471217
H        3.88079727      -1.32233009       0.06465885
H        1.31702978       0.16643632       0.04284182
H        1.42048982       2.81900968      -0.30946723
H        5.93226136       2.67796286       0.20233467
