15
Properties=species:S:1:pos:R:3 -1527.625040271564=T 13.538547=T 12.75808=T -8.656=T -6.7961=T -8.936=T -0.2508=T -1.8048=T -0.401=T 8.39961=T 1.08146=T 4.044671292=T 4.846860712=T 0.908912428=T pbc="F F F"
C        0.87163599      -0.03391006      -0.06160435
C        2.34060972      -0.33462650       0.04107730
C        2.81109966      -1.72194111      -0.00098329
C        2.00364931      -2.78999014      -0.12970760
N        3.12014031       0.70829548       0.16652189
N        4.48908747       0.39494248       0.26091328
C        5.20354513       1.45664370       0.36938741
H        0.71699549       1.04877008      -0.00341458
H        0.31215623      -0.52194340       0.75057578
H        0.45919234      -0.40556774      -1.01173768
H        3.89062913      -1.85068270       0.08183640
H        0.91900646      -2.70056506      -0.21555327
H        2.41275886      -3.80107726      -0.15185422
H        6.28647969       1.33421021       0.45118462
H        4.75952422       2.46292201       0.38239831
