16
Properties=species:S:1:pos:R:3 -1636.6092673681217=T 11.907737=T 13.2261=T -9.3794=T -7.1995=T -9.727=T 0.9239=T -0.1065=T 2.342=T 9.33014=T -1.90341=T 4.3871702184=T 10.9902182288=T 0.30163143=T pbc="F F F"
N        1.15625940       0.33030857      -0.00434924
C        2.59754870       0.01367812      -0.09603960
C        2.84873032      -0.79679126      -1.29298795
C        3.05959622      -1.48279315      -2.27155062
C        3.39338492       1.31160458      -0.12503541
C        3.76835302       1.96972448       1.18382652
C        4.83045138       1.32488544       0.32177665
H        0.98268869       0.79921255       0.88854359
H        0.61245190      -0.53583237      -0.00287814
H        2.97068959      -0.57714723       0.77071983
H        3.25052885      -2.07898076      -3.14030973
H        3.11622311       1.96926332      -0.95145367
H        3.49561837       1.45851658       2.10961761
H        3.73337213       3.05786491       1.24060882
H        5.52567078       1.96976133      -0.21525966
H        5.26232260       0.38464489       0.66830099
