13
Properties=species:S:1:pos:R:3 -1346.1550717669709=T 12.206626=T 12.61684=T -9.3109=T -7.3138=T -9.141=T 0.5302=T -1.0349=T -0.272=T 8.43589=T 0.87111=T 4.6141141928=T 10.152531617=T 0.638764258=T pbc="F F F"
N        1.82333490      -0.40527192      -1.15933716
C        2.67512666      -0.15911283       0.01177222
C        3.06534128       1.29164363       0.08978898
C        2.36294893       2.40572955      -0.32668588
C        3.08276728       3.59526827      -0.04109704
N        4.26695566       3.47298538       0.55196286
S        4.55777136       1.83359418       0.78413648
H        1.48734322      -1.37038765      -1.14342017
H        2.37312905      -0.29814100      -2.01587239
H        3.59096575      -0.78176649       0.05786539
H        2.08585849      -0.41238170       0.90942348
H        1.38995781       2.35540068      -0.81140087
H        2.73309960       4.60337991      -0.27483588
