13
Properties=species:S:1:pos:R:3 -1448.3942420280885=T 12.978197=T 13.14676=T -9.4329=T -7.5273=T -9.314=T -0.8155=T -2.5008=T -1.13=T 9.60773=T 1.78579=T 3.1770420612=T 5.7862778368=T 0.426939613=T pbc="F F F"
C        1.00236710       0.05989372      -0.02709050
C        2.50731003      -0.04691502       0.05319421
C        3.16125600      -1.22360444       0.18070326
C        3.23922575       1.16973759      -0.01095845
C        3.79149862       2.26141699      -0.07277207
C        4.51341716       3.49901540      -0.13846521
O        3.98747719       4.60283192      -0.24001558
H        0.61617803       0.68400280       0.79140785
H        0.53661493      -0.93153278       0.03141377
H        0.69985376       0.54067457      -0.96835250
H        2.61140031      -2.16431944       0.23192861
H        4.24861804      -1.26373784       0.23570595
H        5.62316309       3.38755654      -0.08915934
