11
Properties=species:S:1:pos:R:3 -1277.0033291047903=T 12.229457=T 12.12994=T -9.284=T -7.5033=T -9.043=T -0.1807=T -1.8375=T -1.091=T 9.5739=T 1.8718=T 3.4052506928=T 5.385083938=T 0.420905286=T pbc="F F F"
O        2.64978159      -1.19618395       0.09273369
C        2.12679498      -0.09263399       0.01034357
C        2.86334682       1.17902703      -0.00201686
C        2.23279589       2.40916475      -0.09603532
S        3.36288570       3.70520262      -0.08586695
C        4.70541573       2.60402009       0.04576342
C        4.28838092       1.30178652       0.07938071
H        1.01450616       0.01327821      -0.06168151
H        1.16706736       2.61069800      -0.17011801
H        5.71675490       2.99843378       0.08944175
H        4.95032995       0.44141694       0.15848551
