15
Properties=species:S:1:pos:R:3 -1422.4561654141955=T 8.654644=T 9.44786=T -10.0641=T -7.7875=T -12.002=T 0.9605=T -0.011=T 2.948=T 11.46641=T -2.68891=T 9.7572270532=T 14.6255621404=T 0.100099845=T pbc="F F F"
C        0.90668136      -0.05481971       0.01585867
C        2.43390316       0.02653755       0.08563767
C        2.99989578       1.45247436       0.05015114
C        2.60733014       2.29862639       1.25999208
O        4.43129096       1.42784962      -0.11580175
H        0.57214280      -1.10029033      -0.03990528
H        0.52226918       0.46268108      -0.87690771
H        0.42757705       0.39668297       0.89656642
H        2.87627546      -0.52023444      -0.76184016
H        2.79262879      -0.47289833       1.00497576
H        2.63876676       1.94917459      -0.86740502
H        2.94364167       1.81966516       2.19498458
H        1.51810588       2.43368558       1.32635471
H        3.07350487       3.29071492       1.19310764
H        4.80771614       1.01117060       0.68107125
