17
Properties=species:S:1:pos:R:3 -1749.2127850321829=T 11.123893=T 12.37385=T -9.1171=T -7.1233=T -10.49=T 1.1899=T -0.5425=T 0.309=T 9.52084=T 0.44718=T 3.7592059256=T 7.8936430816=T 0.117300178=T pbc="F F F"
C        0.91015807       0.03561840      -0.41324180
C        2.06812149       0.26088737       0.54072820
O        2.20689749      -0.40754273       1.55695595
C        3.01992320       1.38255742       0.17760653
C        2.55226618       2.82947520       0.57473677
C        4.01324995       3.13001673       1.00146966
C        4.28595795       1.60293485       1.03836189
H        1.29281791      -0.41190573      -1.34409336
H        0.43567676       0.98819362      -0.69139889
H        0.17315569      -0.64073507       0.03395185
H        3.24380550       1.34871143      -0.90119737
H        1.87351740       2.79914769       1.43976943
H        2.10323041       3.44847096      -0.21338977
H        4.57186188       3.62631094       0.19493480
H        4.15835307       3.69631172       1.93115752
H        5.23928934       1.24114493       0.63179890
H        4.13467771       1.17125227       2.03754969
