19
Properties=species:S:1:pos:R:3 -1808.7010233440276=T 12.118142=T 13.07159=T -8.3807=T -6.352=T -9.809=T 0.8748=T -0.0554=T 3.022=T 9.04655=T -2.70272=T 7.8319848438=T 12.358862487=T 0.17708618=T pbc="F F F"
C        1.02264681      -0.00576869       0.09002738
N        2.47175530      -0.00632650       0.08557361
C        3.17136647       1.02968210       0.88291806
C        4.26692510      -0.01718152       1.23236888
C        4.79098498      -0.05001726       2.65808832
N        5.39097307       0.10151436       0.29798359
C        3.16969738      -1.06923456       0.84593281
H        0.64777571      -0.88457524      -0.45550835
H        0.64848050       0.89272558      -0.42312340
H        0.59285148      -0.02421676       1.11738888
H        2.60241754       1.33880977       1.78470554
H        3.49097810       1.92238996       0.32211464
H        3.96914911      -0.09841489       3.38507406
H        5.39437449       0.84617919       2.86174526
H        5.43411653      -0.93073270       2.81769123
H        5.02699551       0.09024286      -0.65971271
H        5.99845523      -0.71905134       0.38601106
H        3.48206954      -1.94418640       0.25161184
H        2.59451716      -1.41071797       1.73320931
