18
Properties=species:S:1:pos:R:3 -1781.7626590123136=T 11.381417=T 12.6128=T -9.1376=T -7.2171=T -10.528=T 0.7092=T -0.249=T 0.672=T 9.44657=T 0.02352=T 4.3741516884=T 6.3487403258=T 0.117141396=T pbc="F F F"
C        1.30999161       2.78007684       0.23454797
N        2.62720723       2.24205668       0.52767405
C        3.59375814       2.08410154      -0.43408610
O        3.41429010       2.38377445      -1.61637467
C        4.92279780       1.50310812       0.06576841
C        5.19602532       0.17101172      -0.64803243
C        6.04884499       2.51623705      -0.18787102
H        1.12124319       3.70615606       0.79789578
H        0.51896857       2.05179782       0.46791031
H        1.28596267       3.00302117      -0.83884491
H        2.85081066       1.97538978       1.48095183
H        4.85220147       1.31574049       1.15238425
H        5.22675318       0.32921988      -1.73509688
H        4.41305675      -0.57073860      -0.43386803
H        6.16097660      -0.24634239      -0.32643717
H        6.10815706       2.74822794      -1.26036429
H        7.01558078       2.10498824       0.13625879
H        5.87676389       3.45673322       0.35527411
