11
Properties=species:S:1:pos:R:3 -1017.3128026888861=T 6.170637=T 6.52733=T -11.9831=T -9.1147=T -12.816=T 1.0778=T 0.1173=T 3.429=T 12.65897=T -3.21095=T 10.9523777016=T 15.7693577876=T 0.538613954=T pbc="F F F"
C        0.97845955      -0.02768979       0.00389766
C        2.50774209       0.01819297       0.00831353
C        3.05889059       1.44544974       0.00669378
H        0.60211829      -1.06093922       0.00127122
H        0.56966716       0.47973329      -0.88389480
H        0.56477020       0.47699441       0.89098372
H        2.89423058      -0.52569991      -0.86988889
H        2.88881752      -0.52182571       0.89125798
H        2.72423469       1.99802663      -0.88517904
H        4.15845772       1.45737554       0.01421023
H        2.71204162       2.00483205       0.88962461
