13
Properties=species:S:1:pos:R:3 -1332.3625892805576=T 10.215254=T 10.02069=T -8.4014=T -6.4478=T -8.923=T 0.3542=T -1.32=T -0.694=T 8.44482=T 1.34452=T 3.4526257434=T 4.3007147806=T 0.384025743=T pbc="F F F"
C        0.99474126      -0.01369320      -0.04239078
C        2.49961569      -0.05176794       0.01203545
C        3.14013589      -1.35389927       0.01150941
O        2.54360098      -2.43226406      -0.01722804
C        3.22906278       1.10947197       0.05002374
N        4.58360528       1.27063212       0.18120861
H        0.62076041       1.01912891      -0.05180881
H        0.55701024      -0.53426690       0.82241855
H        0.61988209      -0.53086856      -0.93801994
H        4.26414574      -1.35739115       0.02952983
H        2.68863754       2.06082934       0.01972562
H        5.19889585       0.47098448       0.07417733
H        4.98466625       2.16406424      -0.07677097
