15
Properties=species:S:1:pos:R:3 -1589.056821463473=T 11.339509=T 12.20875=T -8.065=T -6.0601=T -7.879=T 0.6583=T -0.2483=T 0.972=T 7.44582=T -0.22516=T 4.5255013986=T 6.7761572636=T 0.239353044=T pbc="F F F"
C        0.93224567      -0.00907355      -0.00834232
C        2.42150438       0.05362285      -0.00041012
C        3.31304258       1.10611781       0.00550448
N        4.62056843       0.66109533       0.01210397
C        4.54779505      -0.66065630       0.01007064
C        5.70158691      -1.60890175       0.01426566
N        3.23272589      -1.07355841       0.00249135
H        0.52310251       1.00907815      -0.00211645
H        0.53163463      -0.53175335       0.87506560
H        0.54026257      -0.51754822      -0.90385523
H        3.07468395       2.16708873       0.00570168
H        5.36566727      -2.65425907       0.02416127
H        6.33535411      -1.44365457       0.89693950
H        6.33056437      -1.45915082      -0.87475577
H        2.90874170      -2.03620683       0.00008574
