13
Properties=species:S:1:pos:R:3 -1271.8191326363317=T 9.730394=T 11.32609=T -10.5632=T -8.6585=T -10.965=T 0.6536=T -0.3706=T -0.09=T 10.60146=T 0.50256=T 5.4340956038=T 12.0818529658=T 0.196185073=T pbc="F F F"
C        1.02634746      -0.09291205       0.20381509
C        2.48288094       0.16826092      -0.10788145
C        3.18375824       1.24684071       0.74200878
S        4.31515454      -0.06265788       1.30338250
O        4.12735584      -0.44706434       2.69780258
O        5.65070229       0.03863062       0.72572032
O        3.32199055      -0.98454489       0.31026454
H        0.67523216      -0.98068898      -0.33812066
H        0.41478861       0.76530450      -0.11009746
H        0.88186420      -0.25982754       1.27989951
H        2.65156914       0.32396491      -1.18355103
H        2.59665852       1.64817429       1.57505483
H        3.71498750       2.03178973       0.19523245
