12
Properties=species:S:1:pos:R:3 -1303.0439651416793=T 9.049547=T 9.73016=T -10.1168=T -8.1491=T -11.073=T 0.604=T -1.217=T -0.205=T 10.44919=T 0.61637=T 4.3501356002=T 6.28733006=T 0.193396285=T pbc="F F F"
C        1.01753518      -0.03815970       0.09107780
C        2.49668689       0.04983087      -0.06304042
N        3.20022125      -1.01739341      -0.24938714
O        4.58806793      -0.63839595      -0.36623555
C        4.71735097       0.74051045      -0.24169546
O        5.78402495       1.29713822      -0.30622161
C        3.31818660       1.29463249      -0.02765180
H        0.69394019      -1.08382384       0.03300579
H        0.51079820       0.53831776      -0.69731837
H        0.70219101       0.38251105       1.05751849
H        3.06121691       2.01391963      -0.81922724
H        3.25824990       1.83210242       0.93038551
