12
Properties=species:S:1:pos:R:3 -1301.1568795988524=T 9.619828=T 9.93573=T -8.9344=T -7.0662=T -9.706=T 0.5828=T -1.0867=T -0.671=T 9.16264=T 1.24736=T 4.2796991536=T 4.7948609836=T 0.327919579=T pbc="F F F"
C        0.95658642      -0.02740726       0.02771287
C        2.44477880       0.06656907       0.05616969
C        3.27385107       1.14271827      -0.01780484
C        4.64339159       0.67465579      -0.00138926
O        5.72695738       1.21292672      -0.04547322
O        4.56246030      -0.75879840       0.10497694
N        3.19226115      -1.08648149       0.24323340
H        0.51612201       0.97196878      -0.05668797
H        0.57707933      -0.50263502       0.94306490
H        0.61140257      -0.62653153      -0.82876581
H        2.99642921       2.18862709      -0.07439127
H        2.99332017      -1.89782201      -0.34876542
