15
Properties=species:S:1:pos:R:3 -1452.9221416973214=T 10.561513=T 11.32281=T -9.1161=T -7.0784=T -10.041=T 1.5762=T -0.0928=T 0.704=T 9.43237=T -0.04507=T 5.3598651856=T 11.8474326356=T 0.20224775=T pbc="F F F"
C        1.07164213       0.11732637       0.48035959
C        2.22861369       0.11830546      -0.47188389
N        2.92345258      -0.91616030      -0.79033474
O        2.45378939      -2.08091635      -0.11894766
N        2.55818387       1.38938336      -1.05410009
C        3.06822338       1.37957752      -2.45139237
C        3.99574397       1.65303485      -1.33047415
H        0.66271157       1.12837967       0.56988551
H        1.38935095      -0.24719353       1.46850900
H        0.28964463      -0.57381378       0.13247862
H        3.06677618      -2.75663403      -0.45755207
H        2.69164274       2.19914856      -3.06739289
H        3.14938189       0.40231861      -2.93150484
H        4.69515641       0.85824283      -1.06358779
H        4.30915662       2.67628075      -1.11197222
