16
Properties=species:S:1:pos:R:3 -1574.4330805747657=T 9.911822=T 11.01102=T -9.0484=T -6.9035=T -10.613=T 0.9276=T -0.0427=T 2.974=T 10.29791=T -2.67635=T 8.3037515738=T 10.405711029=T 0.206100597=T pbc="F F F"
C        1.03339192       0.07811242      -0.10492132
C        2.54397590       0.01853641      -0.05203923
C        3.35968630      -0.68144194      -1.13925350
C        3.45663999       0.81609316      -0.95575755
C        2.92700599       1.75687985      -2.00826305
O        4.64803075       1.37293588      -0.41071658
H        0.64377372       0.93414635       0.46693285
H        0.59201045      -0.83760997       0.31758107
H        0.66589942       0.17079848      -1.13649236
H        2.94228794      -0.11376185       0.96088361
H        2.82424661      -1.05948357      -2.01352688
H        4.21158867      -1.29238884      -0.83398512
H        2.02721346       1.35716229      -2.49065068
H        3.69115217       1.91300716      -2.78327569
H        2.68365526       2.73339998      -1.56416686
H        4.94051145       0.80700419       0.32432130
