14
Properties=species:S:1:pos:R:3 -1387.262433922205=T 9.930517=T 10.66301=T -9.6305=T -7.498=T -10.82=T 1.348=T -0.4921=T 0.346=T 10.35303=T 0.26436=T 5.4248586468=T 6.6493195856=T 0.197359433=T pbc="F F F"
O        0.92964421       1.99397786       0.03342546
N        2.25081152       1.96891611      -0.47089372
C        2.99557701       1.18499771       0.21515531
C        4.43422685       1.00109751      -0.15385319
C        5.10546048       2.04942209      -1.06126466
C        6.00132669       2.34194615       0.15619740
O        5.31219386       1.34271159       0.97199604
H        0.49448160       2.61996567      -0.57353924
H        2.61125882       0.63154641       1.08292549
H        4.60213388      -0.04990799      -0.45606448
H        4.43892430       2.86273430      -1.36706980
H        5.61910747       1.63736210      -1.93712417
H        7.06728590       2.08892468       0.03574640
H        5.90943740       3.34876582       0.59376317
