15
Properties=species:S:1:pos:R:3 -1545.3628666993332=T 11.518229=T 11.57733=T -7.8685=T -5.9536=T -8.314=T 0.4593=T -1.1741=T -0.054=T 7.90114=T 0.56946=T 3.8634161586=T 6.2420379742=T 0.446564517=T pbc="F F F"
C        0.93642099       0.04405838       0.32903392
C        2.40599592      -0.00389297      -0.07629801
N        2.70404925       1.08821950      -1.01585579
N        3.93071610       1.18532101      -1.59337808
C        4.54400989       0.05206976      -1.82154246
C        3.90267815      -1.22731821      -1.58361582
C        2.80186279      -1.27073743      -0.80489814
H        0.69201419       0.99207477       0.83100406
H        0.71534286      -0.76894231       1.03448174
H        0.28526951      -0.06603183      -0.54954785
H        3.02856068       0.10274560       0.84504504
H        2.35579185       2.00529239      -0.74475441
H        5.50465402       0.12704746      -2.33286479
H        4.27413997      -2.11375489      -2.10201842
H        2.22485382      -2.18435123      -0.64962100
