15
Properties=species:S:1:pos:R:3 -1486.4735399218462=T 9.463508=T 10.24494=T -9.2338=T -7.2078=T -10.692=T 0.7135=T -0.3032=T 0.577=T 9.63251=T 0.06716=T 4.3601040746=T 11.9201504246=T 0.174666354=T pbc="F F F"
C        0.96586002      -0.03667084      -0.11156848
C        2.50138320       0.00085731      -0.06805879
C        3.12547027      -0.91865235      -1.12929685
C        3.04646019       1.43462988      -0.15437279
N        2.77437918       2.10964880      -1.31806368
O        3.68771197       1.95220206       0.75842923
H        0.52741579       0.63019251       0.64383226
H        0.60654928      -1.05722090       0.08597169
H        0.57475254       0.26339008      -1.09635581
H        2.83112161      -0.33806273       0.92534582
H        2.80583292      -0.64781129      -2.14775933
H        2.81746079      -1.96015644      -0.95591945
H        4.22320793      -0.87918311      -1.09773116
H        2.24801616       1.69762925      -2.07923212
H        3.11791815       3.05956776      -1.41333054
