12
Properties=species:S:1:pos:R:3 -1268.320696453759=T 10.725485=T 10.54319=T -9.6267=T -7.7767=T -10.717=T -0.7866=T -2.5317=T -1.698=T 9.69454=T 2.21616=T 3.0602596478=T 5.0078317358=T 0.310888712=T pbc="F F F"
O        0.49082447       0.36956915       0.09297963
N        1.57943909       1.24230701       0.07861761
C        2.69710414       0.60375640       0.13126550
C        3.98458060       1.34947223       0.12947562
O        5.03398703       0.70536818       0.18706489
C        3.93614348       2.83573824       0.05834450
C        5.06351236       3.56121277       0.05740638
H       -0.27082699       0.97858512       0.05000369
H        2.75339753      -0.49054407       0.18056422
H        2.95002043       3.30003687       0.00767471
H        6.03448743       3.06391370       0.10968450
H        5.04193044       4.64996442       0.00550877
