18
Properties=species:S:1:pos:R:3 -1726.0446790539256=T 11.939921=T 12.58812=T -9.2194=T -7.2395=T -10.685=T 1.4593=T -0.377=T 0.406=T 10.21807=T 0.12134=T 5.2490960932=T 6.5458036742=T 0.422159409=T pbc="F F F"
C        0.81901448      -0.88081886      -0.29203076
C        2.34490508      -0.81830966      -0.23886030
C        2.90229133      -1.71685808       0.86633669
C        2.96460821      -1.13694000      -1.60047463
O        2.59667156       0.59685913       0.10017724
N        3.96702240       0.85301562       0.19561137
C        4.19636842       2.07923893       0.49017170
H        0.42900961      -0.19539866      -1.05714381
H        0.38533965      -0.60435906       0.67896245
H        0.49494340      -1.90063506      -0.54034348
H        2.45842497      -1.45244249       1.83658716
H        3.99203501      -1.60714406       0.93754319
H        2.66933797      -2.76981762       0.65284605
H        2.56356044      -0.46426318      -2.37180652
H        2.73489480      -2.17264237      -1.88878791
H        4.05505135      -1.01780852      -1.56343117
H        5.24498528       2.36230273       0.58347514
H        3.40205605       2.81952121       0.64376760
