19
Properties=species:S:1:pos:R:3 -1817.176285216958=T 11.905132=T 12.94387=T -8.6322=T -6.496=T -10.141=T 0.8109=T -0.137=T 2.878=T 9.66843=T -2.58958=T 8.1562702268=T 11.3203433524=T 0.095173765=T pbc="F F F"
C        0.90570757      -0.03602848      -0.04774997
C        2.42047460       0.01875923       0.03303061
C        3.13955919       1.07866869       0.95530925
N        2.45278147       1.56427914       2.15246147
C        4.19385505      -0.01188339       1.28677659
C        3.20480156      -1.09893321       0.79667979
N        3.77570782      -2.26522585       0.13920845
H        0.56997263      -0.93682391      -0.58529153
H        0.49117348       0.83491150      -0.57975741
H        0.45045111      -0.06164154       0.95501584
H        2.85181888       0.10484723      -0.98063233
H        3.52266934       1.95926389       0.41826865
H        2.10288302       0.78417916       2.71549906
H        1.63470866       2.12152934       1.89182223
H        5.06790729       0.05311367       0.62135841
H        4.54595392      -0.05992993       2.32664395
H        2.59612484      -1.46675511       1.64130859
H        4.26101253      -1.98193765      -0.71711365
H        3.04170702      -2.91980277      -0.14220802
