16
Properties=species:S:1:pos:R:3 -1614.1864622788858=T 10.347618=T 11.23924=T -8.7894=T -6.646=T -10.159=T 0.8635=T -0.0839=T 2.856=T 9.40792=T -2.61394=T 8.0027631602=T 10.923910516=T 0.23770567=T pbc="F F F"
C       -1.51116597       0.79813040       0.18322933
C       -1.36065890      -0.69484671      -0.13412898
C        0.03678438      -1.20212081       0.17997955
O        1.05011317      -0.98453098      -0.83275067
C        1.13835620      -0.23944104       0.39237295
C        0.86022347       1.24773181       0.33849383
N       -0.37984616       1.53652659      -0.37819723
H       -2.44000883       1.18511283      -0.26058507
H       -1.59338648       0.92514625       1.28781071
H       -1.56245719      -0.87616078      -1.20118992
H       -2.09643709      -1.27269418       0.44649798
H        0.10796096      -2.18772431       0.65596243
H        1.97790679      -0.52360410       1.04012903
H        0.84498899       1.59500812       1.39871106
H        1.69586003       1.76044884      -0.16487059
H       -0.56118337       2.53983806      -0.36014442
