17
Properties=species:S:1:pos:R:3 -1781.2687011435949=T 11.847144=T 12.80458=T -8.5883=T -6.4958=T -8.266=T 1.6471=T 0.0645=T 1.392=T 7.80546=T -0.70208=T 5.2733601534=T 11.3049318926=T 0.22849486=T pbc="F F F"
C        0.80814360       0.02528751      -0.55200156
C        2.11531197      -0.08901651       0.19948550
C        2.57629119      -1.40803458       0.92678067
C        3.96205471      -0.67860671       0.88964039
C        3.51647916      -0.15380027      -0.51739414
C        3.64776900       0.55168390       1.75328697
C        2.44172670       0.93767964       1.30352290
H       -0.05016767      -0.05457939       0.13272828
H        0.71122673      -0.76936637      -1.30618711
H        0.73366228       0.99293213      -1.07165428
H        2.53205247      -2.29358753       0.27253540
H        2.14126673      -1.61766778       1.91465353
H        4.90943228      -1.20746639       1.04702577
H        3.95011092       0.79536199      -0.86399716
H        3.55803448      -0.92487014      -1.30349969
H        4.27672797       0.97780943       2.53213691
H        1.80810749       1.76790107       1.61154761
