16
Properties=species:S:1:pos:R:3 -1474.9581120419084=T 11.208374=T 12.82013=T -9.9907=T -8.023=T -10.685=T 0.7404=T -0.2505=T 0.309=T 10.33388=T 0.03345=T 5.674529255=T 11.255759045=T 0.163247122=T pbc="F F F"
C        1.28489558      -0.29535171       0.98181489
C        2.78983634      -0.37182294       0.75488821
N        3.28471168       0.93407799       0.27165221
S        4.94188032       1.06543994      -0.07669493
C        5.56606098       1.78886695       1.44070911
O        5.55461031      -0.26276315      -0.20523876
O        5.04208178       2.07311998      -1.13891472
H        0.91395279      -1.25343130       1.37041877
H        0.75024598      -0.08978002       0.04208573
H        1.03116184       0.49528367       1.70121505
H        3.04201953      -1.18407000       0.05402710
H        3.30289353      -0.59343396       1.70291698
H        2.79622573       1.26441948      -0.56662535
H        5.10144383       2.77087136       1.57104447
H        6.65158218       1.87364592       1.31501773
H        5.33183760       1.11732779       2.27417350
