16
Properties=species:S:1:pos:R:3 -1610.223749465192=T 10.89219=T 11.45194=T -8.4675=T -6.3344=T -8.947=T 0.8625=T -0.1194=T 1.289=T 8.49531=T -0.72495=T 5.9852629682=T 0.28028396=T pbc="F F F"
C        1.67665545      -0.12809147      -0.06669535
C        0.72736070      -1.17458204       0.50515745
O       -0.42722591      -1.45610198      -0.30912784
C       -1.44950806      -0.55148826      -0.17009941
C       -1.36333713       0.73615433       0.20283064
C       -0.09627982       1.54624817       0.38500617
N        0.97804344       1.08269853      -0.49803999
H        2.20976819      -0.54333511      -0.93751308
H        2.43388329       0.04730912       0.73117445
H        1.26101379      -2.13076202       0.60495665
H        0.37011877      -0.87286156       1.50450641
H       -2.40885018      -1.01709684      -0.40742107
H       -2.31106032       1.26735820       0.30711438
H        0.19590272       1.59291323       1.46002489
H       -0.32213719       2.58420455       0.09593461
H        1.65104226       1.83194314      -0.65903890
