16
Properties=species:S:1:pos:R:3 -1539.2374211195618=T 10.318512=T 10.9279=T -8.9312=T -6.9085=T -9.882=T 0.7857=T -0.2012=T 1.092=T 9.13067=T -0.48151=T 4.8982777062=T 6.3977271944=T 0.188177705=T pbc="F F F"
C        0.90647836      -0.05600102      -0.22008076
C        2.42782769       0.07241929      -0.04005721
C        3.18627910      -0.82475121      -1.03369862
C        2.91894078       1.51918265      -0.11926806
N        2.57402428       2.20014078      -1.27797833
N        3.67143635       2.10921503       0.74592749
H        0.35935514       0.61287563       0.45944396
H        0.58661383      -1.08731651      -0.01170375
H        0.59351095       0.16805420      -1.25257131
H        2.67129555      -0.26384683       0.98147360
H        2.97777280      -0.52866975      -2.07199214
H        2.88334396      -1.87496194      -0.91022527
H        4.27183337      -0.75917422      -0.87753690
H        1.68766291       1.96543569      -1.71386532
H        2.77549231       3.19707965      -1.23926393
H        3.90673264       1.45970858       1.50505656
