10
Properties=species:S:1:pos:R:3 -1180.2668755523532=T 8.801806=T 8.75938=T -9.4096=T -7.2092=T -9.273=T -1.1643=T -3.0159=T -1.65=T 8.82479=T 1.88684=T 2.8942919882=T 6.696607846=T 0.890122272=T pbc="F F F"
O        0.87619966       0.00009003       0.00719031
C        2.09702525       0.00023159       0.00204899
C        3.00627277       1.20772274      -0.00154073
C        4.27176581       0.75168944      -0.00700283
C        4.27193342      -0.75078863      -0.00728451
C        3.00652750      -1.20708539      -0.00199285
H        2.64558747       2.23251116       0.00018399
H        5.18171499       1.35061130      -0.01072819
H        5.18201000      -1.34951449      -0.01123348
H        2.64599313      -2.23192775      -0.00065070
