18
Properties=species:S:1:pos:R:3 -1749.3665449854982=T 11.235108=T 12.52469=T -9.274=T -6.9695=T -10.658=T 0.8938=T -0.071=T 2.8=T 10.0508=T -2.5512=T 8.629487593=T 13.4343542468=T 0.096186292=T pbc="F F F"
N        2.13187148      -0.42671550      -1.41130932
C        2.38793925       0.01950184      -0.03129274
C        3.14591073       1.33602286      -0.01337041
C        2.46166637       2.64379785      -0.50137835
C        3.19046151       3.40960413       0.63654096
C        3.38086775       2.04735583       1.34879435
O        4.54452974       1.78261766       2.11727417
H        1.56511096      -1.27782223      -1.40231660
H        3.01662888      -0.68224826      -1.85897461
H        2.94136558      -0.71470133       0.59041832
H        1.40909070       0.17285413       0.45471332
H        4.12122870       1.21963563      -0.52359688
H        1.37436871       2.60185915      -0.34083021
H        2.65013116       2.96126883      -1.53358005
H        4.15968604       3.80435390       0.29100069
H        2.65580717       4.20449137       1.17374710
H        2.53576521       1.84560099       2.02753775
H        5.31549005       2.00682315       1.56547250
