15
Properties=species:S:1:pos:R:3 -1541.451298819695=T 9.952932=T 11.20199=T -9.6584=T -7.4676=T -10.939=T 0.9467=T -1.0227=T -0.065=T 10.0655=T 0.70869=T 3.67494504=T 10.909466147=T 0.147087245=T pbc="F F F"
C        1.28078326       0.08706709       0.23325911
C        2.69565206      -0.16071306      -0.28623266
C        2.72044240      -0.91527878      -1.60973879
O        1.73639295      -1.35078314      -2.17762438
C        3.49296234       1.12632907      -0.43672633
C        4.39545072       1.61192884       0.62079645
O        4.92381982       0.99588636      -0.57059011
H        1.30741853       0.56077120       1.22379445
H        0.72677666      -0.85713203       0.30684502
H        0.71876768       0.73921659      -0.45013141
H        3.26432036      -0.79921095       0.41782389
H        3.74350841      -1.04966803      -2.04173129
H        3.04976717       1.87140464      -1.11127285
H        4.50138115       1.02161932       1.53824722
H        4.59590650       2.68388287       0.71516167
