18
Properties=species:S:1:pos:R:3 -1808.645560540805=T 11.59306=T 12.61475=T -8.5237=T -6.4476=T -9.732=T 0.9398=T 0.051=T 2.981=T 9.04311=T -2.63483=T 7.8970898924=T 11.624431416=T 0.115630061=T pbc="F F F"
C        1.35641120      -0.27062855      -0.37153373
C        2.77115851       0.05422966       0.04874826
C        3.65999765      -1.03576757       0.61182974
C        3.98311245      -0.41937298      -0.73633290
N        4.97776275       0.64115706      -0.79766766
C        4.28797134       1.88899898      -0.39918327
C        3.10046103       1.48450376       0.50587421
H        0.99769933       0.43478258      -1.13774459
H        0.66451994      -0.21865971       0.48380073
H        1.28869672      -1.28497240      -0.79030845
H        3.26505181      -2.05473241       0.62155394
H        4.31592004      -0.79132671       1.45150330
H        3.85430673      -1.02842718      -1.63606622
H        5.74457908       0.44288816      -0.15134478
H        4.99451190       2.58432970       0.07778084
H        3.90393237       2.38445230      -1.30785640
H        3.37409798       1.51382941       1.57322747
H        2.23455917       2.15085590       0.36969950
