18
Properties=species:S:1:pos:R:3 -1753.9280707999571=T 11.236605=T 12.35654=T -9.0546=T -6.8934=T -10.506=T 0.7984=T -0.179=T 2.706=T 9.88178=T -2.44134=T 8.322498257=T 10.7961181458=T 0.087228877=T pbc="F F F"
C        1.02462651      -0.01368237       0.55152299
C        2.34582982       0.01458525      -0.20285785
O        2.00416459       0.08953052      -1.58823437
C        3.35501441       1.06610647       0.34946617
C        4.02593534      -0.05599286       1.17953441
N        5.46964862       0.03328520       1.34346691
C        3.33912156      -1.10197371       0.24044736
H        1.18793405      -0.07048327       1.63640571
H        0.43189214      -0.88605816       0.24184592
H        0.44689331       0.89568719       0.33316063
H        2.83320951       0.12237288      -2.09616978
H        2.96038789       1.94812265       0.87281248
H        4.03525496       1.40451782      -0.45006971
H        3.58129044      -0.10297121       2.18584405
H        5.93113512      -0.01157160       0.43025546
H        5.81935453      -0.76096219       1.88547477
H        4.01380978      -1.37150942      -0.58926562
H        2.92218743      -2.02231318       0.67553049
