16
Properties=species:S:1:pos:R:3 -1636.451685145932=T 11.857592=T 12.09601=T -8.501=T -6.6109=T -9.131=T 1.1163=T -0.4923=T 0.161=T 8.51384=T 0.51064=T 4.2065474136=T 5.1590326628=T 0.381088129=T pbc="F F F"
C        1.00938719      -0.11578685       0.37181329
N        2.44065245      -0.11728612       0.08000247
C        3.13676762      -1.32472617       0.16942029
C        2.60813032      -2.51578773       0.50584923
C        3.04351756       1.09745221      -0.27536854
C        4.53133089       1.08124695      -0.57655724
O        2.38952969       2.13628412      -0.34028547
H        0.64643738       0.90819548       0.24846346
H        0.83338965      -0.45535607       1.40309416
H        0.48175520      -0.78779680      -0.32085146
H        4.19766899      -1.25164487      -0.06114656
H        1.55675591      -2.65848321       0.74780590
H        3.25643282      -3.38858438       0.54072265
H        5.12104207       0.75120488       0.29016228
H        4.81737378       2.10584794      -0.83206013
H        4.77094848       0.42178061      -1.42245431
