13
Properties=species:S:1:pos:R:3 -1288.5754478711767=T 10.189237=T 10.47144=T -9.632=T -7.4707=T -9.834=T 1.1006=T -0.6397=T 0.236=T 9.3046=T 0.31062=T 5.4880791082=T 6.138980811=T 0.437369666=T pbc="F F F"
O        0.74560568       0.72231597      -0.98302722
N        2.15862042       0.64763697      -1.08287605
C        2.72210558       1.26420920      -0.11018978
C        4.22097070       1.31424813      -0.03355074
C        4.74294757       2.72637990      -0.12821816
C        5.43629736       3.34911873       0.83070267
H        0.46424456       0.21549418      -1.76597133
H        2.12692559       1.77335507       0.66115368
H        4.62407991       0.70056024      -0.85476451
H        4.55272307       0.86524756       0.91787896
H        4.51302969       3.25459908      -1.05977597
H        5.67904733       2.85231474       1.77380064
H        5.79066255       4.37295024       0.70416781
