12
Properties=species:S:1:pos:R:3 -1263.489196119177=T 9.286148=T 9.21586=T -7.8942=T -5.7858=T -8.116=T 1.4877=T -0.2502=T 0.777=T 7.68652=T -0.23962=T 4.2786080768=T 12.1054722988=T 0.455751357=T pbc="F F F"
C        1.42361464      -0.21006725       0.06117856
C        0.41907184      -1.33902348      -0.00174086
C       -0.89798946      -1.08911553      -0.03678442
N       -1.36431749       0.23155880      -0.01655334
C       -0.43745941       1.26415681       0.03026576
N        0.83620068       1.14425998       0.06633453
H        2.06131423      -0.30455776       0.96112753
H        2.12918551      -0.26811074      -0.78970759
H        0.77075351      -2.37129286      -0.01840794
H       -1.66120821      -1.86477753      -0.08218304
H       -2.35491191       0.43641699      -0.04750803
H       -0.88158393       2.26725257       0.03501884
