15
Properties=species:S:1:pos:R:3 -1478.3258126950452=T 15.15039=T 14.6748=T -7.8226=T -6.1352=T -8.73=T 0.489=T -0.9849=T -0.36=T 7.78089=T 1.12559=T 3.1183842846=T 10.7848850142=T 0.813724626=T pbc="F F F"
C        0.51266900      -0.59143744      -0.19932881
C        2.01052130      -0.44815434      -0.27304819
C        2.81201712      -1.51711758      -0.46191336
N        2.59705490       0.83546187      -0.22282578
C        2.14318038       2.08513797       0.13188307
N        0.91372682       2.18950305       0.72960375
S        3.08201325       3.44167974      -0.19904785
H       -0.00170532       0.15721101      -0.81568812
H        0.12865656      -0.50824910       0.82986624
H        0.23678871      -1.59051748      -0.55530983
H        2.38402065      -2.50979585      -0.58054989
H        3.89706742      -1.42304338      -0.51501415
H        3.55467943       0.88950414      -0.56674134
H        0.55148771       1.41563521       1.27909096
H        0.72228207       3.12043218       1.08713330
