15
Properties=species:S:1:pos:R:3 -1547.557266945375=T 10.69829=T 11.46406=T -9.274=T -7.111=T -9.675=T 0.8683=T -0.8611=T 0.029=T 9.10513=T 0.61368=T 3.6721677536=T 6.4494293564=T 0.276402531=T pbc="F F F"
O        2.88731586      -0.61995168       1.02858346
C        2.17268826       0.03920812      -0.03235105
C        2.57781705       1.48873063      -0.07532441
C        1.65840938       2.46521995      -0.09386953
C        4.06092630       1.79212327      -0.11499539
C        4.64419381       1.97958434       1.28213264
O        5.31750730       2.94070624       1.60361774
H        2.74417361      -1.57631620       0.93583522
H        1.08085442      -0.04211819       0.11026179
H        2.42746174      -0.42530213      -1.00600880
H        0.59187300       2.24082824      -0.03429406
H        1.94322878       3.51535592      -0.18084784
H        4.27375478       2.70154956      -0.69283664
H        4.60479373       0.94691573      -0.57272566
H        4.40826199       1.16266620       2.00341252
