11
Properties=species:S:1:pos:R:3 -1144.2476079201049=T 7.68722=T 7.87115=T -9.199=T -6.7922=T -9.111=T 0.995=T 0.0966=T 1.252=T 8.71843=T -0.68494=T 6.104078752=T 0.304435326=T pbc="F F F"
C       -0.36484290       1.17510096       0.14034475
O       -1.19218354      -0.00139521       0.21978343
C       -0.36712093      -1.17852329       0.12725941
C        1.03577748      -0.67031733      -0.02059284
C        1.03707627       0.66585462      -0.01317236
H       -0.49624862       1.78300631       1.05673576
H       -0.68606271       1.79624802      -0.71836183
H       -0.68952513      -1.78948685      -0.73828461
H       -0.49970488      -1.79632884       1.03684034
H        1.90325566      -1.32217642      -0.11709315
H        1.90580930       1.31706803      -0.10243888
