19
Properties=species:S:1:pos:R:3 -1877.3742787543883=T 11.66835=T 13.17801=T -9.6864=T -7.5132=T -11.368=T 0.9197=T -0.0032=T 2.77=T 11.03842=T -2.51931=T 9.2383084474=T 9.8363425198=T 0.095398143=T pbc="F F F"
C        2.29732231      -0.51141674      -1.52304400
C        2.46631681       0.01510643      -0.09515111
C        3.21356476       1.33880441      -0.02124391
C        2.55467071       2.65337022      -0.53676728
C        3.24931017       3.41423756       0.62534944
C        3.38692510       2.05133533       1.34817449
O        4.50811155       1.77344661       2.17245153
H        1.74637679      -1.46286823      -1.53845724
H        3.27426527      -0.68409440      -2.00069007
H        1.74364981       0.20391766      -2.15006496
H        3.00265886      -0.73017921       0.51665590
H        1.47412809       0.14188908       0.37326283
H        4.21274230       1.23637482      -0.48691939
H        1.46190760       2.62550459      -0.40613180
H        2.78001664       2.97413003      -1.56167539
H        4.23846366       3.78849712       0.31555479
H        2.70728039       4.22243681       1.13432531
H        2.50702278       1.86146821       1.98476625
H        5.30825640       1.95518971       1.64666463
