17
Properties=species:S:1:pos:R:3 -1698.0982647721532=T 12.867069=T 13.38438=T -8.8028=T -6.899=T -9.246=T 0.5604=T -0.9939=T 0.049=T 8.59589=T 0.43727=T 4.5922678596=T 5.4697911732=T 0.558845334=T pbc="F F F"
C        2.56131762      -0.68387649       1.50228504
C        3.25425938      -0.26355427       0.19610929
C        3.16887728       1.21123473      -0.05537396
C        4.22287342       2.03037019      -0.21873831
C        4.16123941       3.48351005      -0.48766947
N        2.94268974       4.11217855      -0.24738308
N        5.13602748       4.17994802      -0.98012229
H        2.61312196      -1.77306841       1.63938252
H        1.49920379      -0.39671259       1.49945681
H        3.03635839      -0.20692938       2.37142887
H        2.77451783      -0.79535597      -0.64483110
H        4.30939409      -0.57931288       0.20795067
H        2.15698383       1.62882009      -0.12403764
H        5.23514755       1.61320070      -0.18901068
H        2.43426235       3.79449050       0.57383135
H        3.01343898       5.12589366      -0.31673017
H        5.93107690       3.56434352      -1.18830784
