15
Properties=species:S:1:pos:R:3 -1517.3377287979347=T 11.557278=T 11.74423=T -8.5047=T -6.5481=T -9.094=T 0.8114=T -0.5092=T 0.286=T 8.54896=T 0.40978=T 4.284894167=T 5.3112750722=T 0.332971208=T pbc="F F F"
N        3.10079529      -1.21801694       0.21090882
C        2.26681040      -0.04132291      -0.07730248
C        3.05258266       1.27805610      -0.07891137
O        2.48607719       2.36834236      -0.07915158
N        4.41688679       1.10169519      -0.10837999
C        5.33465917       2.14708933      -0.14242100
C        6.66728676       1.99145079      -0.17919946
H        2.74045353      -2.04585477      -0.26392727
H        3.09692997      -1.42685405       1.21111105
H        1.41495635       0.10158180       0.60783043
H        1.83984415      -0.14065179      -1.08698285
H        4.71489608       0.12041704      -0.10119660
H        4.85516371       3.12759552      -0.13661990
H        7.13972108       1.00763282      -0.18696583
H        7.31457690       2.86520952      -0.20429196
