16
Properties=species:S:1:pos:R:3 -1622.0300099897543=T 10.743948=T 11.94827=T -9.2552=T -7.3101=T -10.509=T 1.1033=T -0.3173=T 0.466=T 9.61816=T 0.25511=T 4.148447574=T 12.7509434148=T 0.133402935=T pbc="F F F"
C        1.07525916       0.16928515       0.76377305
C        2.38839501       0.65249189       0.15725762
C        2.66650664       0.06876693      -1.22097384
O        2.03580754      -0.85910238      -1.70988396
N        3.80238218       0.61362663      -1.84962727
C        3.84698204       1.96391447      -2.40942834
C        3.87261551       0.74803295      -3.29253226
H        0.94457611       0.57704101       1.77520064
H        1.05270766      -0.92628328       0.82222923
H        0.21695283       0.48046354       0.15302044
H        3.24378697       0.37347192       0.79573116
H        2.42393085       1.75257240       0.09253951
H        4.76397171       2.52885214      -2.22494633
H        2.92290623       2.54888040      -2.39405088
H        2.96691862       0.49850687      -3.85090024
H        4.81373093       0.43672937      -3.75044855
