13
Properties=species:S:1:pos:R:3 -1434.4866356802013=T 12.009845=T 11.56253=T -9.3892=T -7.4556=T -9.357=T -0.6723=T -2.2962=T -1.161=T 8.8415=T 1.72153=T 4.0683402194=T 4.5569690454=T 0.79283028=T pbc="F F F"
O        1.97412874      -1.23203596       0.48143446
C        2.88505771      -0.45764339      -0.20257163
O        3.55300836      -0.95936862      -1.08453060
C        2.95936343       0.96160563       0.22112740
C        3.82329092       1.81618410      -0.37259901
C        3.96083112       3.21304112      -0.03035196
C        4.83047628       4.03973006      -0.64452056
H        1.52421541      -0.68545386       1.15295839
H        2.30337284       1.31641329       1.02318595
H        4.45855817       1.41464936      -1.16965957
H        3.31878169       3.60052365       0.76757040
H        5.48252172       3.68012400      -1.44331708
H        4.91267361       5.09048062      -0.36701619
