17
Properties=species:S:1:pos:R:3 -1676.1975536211878=T 11.616774=T 12.38516=T -8.4773=T -6.573=T -9.334=T 0.8486=T -0.098=T 1.019=T 8.45916=T -0.44832=T 4.957208252=T 11.48978262=T 0.259511519=T pbc="F F F"
C        0.97337658       0.04330075       0.19577682
N        2.26382404      -0.29188042      -0.40036840
C        2.61241807      -1.63581272      -0.50641974
N        3.76909447      -2.17900575      -0.64079038
C        3.30360049       0.69172178      -0.27240482
C        4.17628496       0.98689159      -1.47183603
C        3.15100020       1.99595219      -1.01856375
H        0.59695671       0.98750975      -0.22157947
H        1.03514913       0.14829245       1.29466399
H        0.25045283      -0.74996703      -0.03517137
H        1.72771525      -2.29000313      -0.50358274
H        4.51312105      -1.46747606      -0.61548404
H        3.78676929       0.74629909       0.71281560
H        3.95957455       0.42825596      -2.38179137
H        5.23117322       1.19667518      -1.29485980
H        3.49447408       2.90409781      -0.52369925
H        2.26222507       2.11513854      -1.63856526
