17
Properties=species:S:1:pos:R:3 -1689.0254395030493=T 12.467172=T 13.05493=T -8.6258=T -6.8147=T -9.41=T 0.7133=T -0.9693=T 0.007=T 8.60964=T 0.42747=T 4.7008795956=T 5.5748941054=T 0.321098374=T pbc="F F F"
C        1.84815929      -0.49315921      -0.48740934
C        3.32767555      -0.40181261      -0.13288250
N        3.91327934       0.81983194      -0.66710671
C        5.24049898       1.14759933      -0.43653953
N        6.14653214       0.39006118       0.10212541
C        5.67759598       2.48800806      -0.89173404
C        5.00039647       3.32378956      -1.69196933
H        1.41908610      -1.42442233      -0.09486318
H        1.70180054      -0.48008414      -1.57670468
H        1.28085711       0.34286129      -0.05060095
H        3.86410441      -1.26394496      -0.56336515
H        3.45821493      -0.45718738       0.96599029
H        3.27648122       1.60966619      -0.74308712
H        5.75440635      -0.51659582       0.38792993
H        6.66963365       2.75384857      -0.52142230
H        4.02847931       3.07239336      -2.12244746
H        5.41767864       4.29160696      -1.97072337
