19
Properties=species:S:1:pos:R:3 -1944.4352836517673=T 12.605544=T 13.64952=T -8.9535=T -6.8118=T -8.918=T 1.0268=T 0.056=T 1.454=T 8.41377=T -0.8015=T 6.0962180396=T 0.315248599=T pbc="F F F"
C        2.44819492      -0.48059271      -1.65623783
C        2.46111681       0.02009723      -0.21040876
C        3.30587622       1.28553390       0.01092277
C        3.41382470       1.70240213       1.50322333
C        3.44451740       3.24998083       1.51611223
C        2.84160722       3.60758712       0.17902840
C        2.77176582       2.54652852      -0.63757439
H        1.86669191      -1.40889660      -1.75110305
H        3.46908145      -0.68918785      -2.01266575
H        2.00257345       0.25716746      -2.33994319
H        2.85066601      -0.77650112       0.44658133
H        1.42974648       0.22238735       0.12765218
H        4.31793854       1.08274084      -0.39746039
H        4.27967704       1.24930342       2.00596704
H        2.50928708       1.35390935       2.02854879
H        4.47657816       3.64037433       1.58752780
H        2.89360354       3.68020492       2.36754219
H        2.54687444       4.62411544      -0.08896961
H        2.41652882       2.58065546      -1.66924309
