16
Properties=species:S:1:pos:R:3 -1613.7786722919495=T 11.621036=T 12.35409=T -9.0753=T -6.9423=T -10.297=T -0.0894=T -1.8179=T -0.551=T 9.40411=T 1.16445=T 3.4798158732=T 5.6507611388=T 0.379773739=T pbc="F F F"
C        0.93606587       0.13962939      -0.01488982
N        2.34525949       0.00155189      -0.38248936
C        3.14539718       1.17008145      -0.03012350
C        4.64334257       0.93866092      -0.23784355
O        5.34889397       1.80749522      -0.74178156
C        5.18112527      -0.36983598       0.23831406
C        6.47583954      -0.68599211       0.08683420
H        0.37942019      -0.73995965      -0.36597236
H        0.44650678       1.04826992      -0.42123659
H        0.84871775       0.17390662       1.08196414
H        2.41795465      -0.15974542      -1.39003693
H        3.00786079       1.35883844       1.05191708
H        2.86907374       2.10489173      -0.55664257
H        4.46888851      -1.05392720       0.70423483
H        7.15408606       0.01406602      -0.40667046
H        6.88140763      -1.63274124       0.44515239
