18
Properties=species:S:1:pos:R:3 -1738.2756935569978=T 11.445704=T 12.70363=T -9.212=T -7.0375=T -10.274=T 0.8998=T -0.0376=T 3.036=T 9.63808=T -3.51636=T 8.2213008838=T 11.2617971632=T 0.368084019=T pbc="F F F"
C        1.59382946      -0.15605390       0.18530813
O        3.00007833       0.03288024       0.18999440
C        3.35444522       1.41088428       0.06155687
C        4.85924610       1.54152754       0.15148042
N        5.50302837       1.08543348       1.36864718
C        5.65892062       1.35763174      -1.11839027
C        5.49114024       2.73747762      -0.52237057
H        1.41011443      -1.23164545       0.30465594
H        1.14032982       0.18283513      -0.76624504
H        1.10594246       0.38796940       1.01701990
H        2.87229551       1.99543190       0.87476281
H        2.98325860       1.81231814      -0.90385165
H        5.23173695       0.11193990       1.53659881
H        5.15582788       1.62574647       2.16735874
H        5.11531176       1.11892404      -2.03295684
H        6.63238091       0.88064605      -1.01127762
H        6.35233030       3.17171234      -0.01476499
H        4.84198306       3.44976107      -1.03417622
