15
Properties=species:S:1:pos:R:3 -1548.2350759049198=T 10.81357=T 12.37022=T -9.7642=T -7.6809=T -11.005=T 0.7259=T -0.226=T 1.438=T 10.46698=T -1.06176=T 5.3795913582=T 11.6182817104=T 0.310388342=T pbc="F F F"
C        1.01458749      -0.05327232      -0.01953635
C        2.52187438       0.00950363      -0.03759117
N        3.29600211      -0.56834547      -1.16119891
C        3.23866379       0.89651572      -0.99327720
C        4.55141262       1.57091542      -0.62161532
C        5.34816710       1.91954132      -1.79676919
N        5.95942418       2.21001834      -2.74677269
H        0.59798850       0.66201562       0.70531017
H        0.66841126      -1.05768984       0.26607601
H        0.59445370       0.18414052      -1.00847999
H        3.00212223      -0.17155037       0.93105742
H        2.65810628      -0.85659310      -1.91117175
H        2.61640908       1.46831693      -1.68926223
H        5.14049684       0.89409156       0.01538704
H        4.36145046       2.49246203      -0.04805585
