15
Properties=species:S:1:pos:R:3 -1571.4843759548828=T 11.155395=T 12.08243=T -9.0422=T -6.9249=T -9.312=T 1.3508=T -0.4081=T 0.087=T 10.27924=T 0.58747=T 4.4035239718=T 6.2926738566=T 0.359631154=T pbc="F F F"
C       -0.65827705       0.52805165       0.87555781
C        0.45379899      -0.21103606       0.19957555
C        1.64283711       0.33429801      -0.06968450
O        2.62340740      -0.42303709      -0.70644546
C        3.83995271       0.18871000      -0.94518809
C        4.76311587      -0.77121123      -1.64613853
O        4.09687156       1.33126542      -0.62712449
H       -0.95266659       0.03163993       1.81393213
H       -1.55769213       0.55965731       0.24021958
H       -0.37348009       1.56212642       1.11300999
H        0.28051609      -1.25233089      -0.08797565
H        1.93939484       1.35695017       0.16654431
H        4.90316884      -1.67333317      -1.03546877
H        5.72601225      -0.28454435      -1.82407682
H        4.31998022      -1.08921610      -2.59964706
