15
Properties=species:S:1:pos:R:3 -1570.1516892293146=T 10.066594=T 11.10473=T -9.437=T -7.3877=T -10.684=T 1.1869=T -0.8865=T -0.099=T 10.2015=T 0.70319=T 3.6979692402=T 11.5115545616=T 0.220724705=T pbc="F F F"
C        1.68537794      -1.65907415       0.81448653
C        3.03658676      -1.06338055       1.13501031
O        3.61168270      -1.27581238       2.19271541
C        3.64565992      -0.15490407       0.06506117
C        5.16340141      -0.08098463       0.15357973
C        5.85208760      -1.32009676      -0.36239647
O        5.27859074      -2.29278807      -0.81832336
H        1.00507541      -0.90124962       0.39822549
H        1.24821226      -2.11787540       1.70806661
H        1.82131481      -2.42841767       0.03810456
H        3.20585433       0.84529102       0.22073915
H        3.32187425      -0.49038262      -0.93118427
H        5.48306495       0.05159536       1.20251027
H        5.57437525       0.78234026      -0.39772877
H        6.97038167      -1.29385072      -0.30189636
