17
Properties=species:S:1:pos:R:3 -1683.7667043263118=T 10.716681=T 11.92408=T -9.632=T -7.3895=T -10.974=T 1.2807=T -0.7736=T 0.012=T 10.07996=T 0.60533=T 3.6979692402=T 11.8484369222=T 0.121224516=T pbc="F F F"
C        3.41839594       2.32594481       2.91536359
O        4.31597372       2.04331532       1.85251487
C        3.68007217       2.15338617       0.57721491
C        4.70864351       1.86732436      -0.50946741
C        5.86601490       2.86563219      -0.52843849
C        5.54553026       4.22195670      -1.10249866
O        4.47833365       4.54939728      -1.59109332
H        3.98037733       2.22083237       3.85213821
H        2.56608964       1.61983109       2.92542075
H        3.01752813       3.35508122       2.84695142
H        3.25018268       3.16583291       0.45216155
H        2.84701462       1.42538048       0.50814100
H        4.19291518       1.88049429      -1.48158366
H        5.10571747       0.85233806      -0.35728030
H        6.72164324       2.48208480      -1.11476419
H        6.27317345       3.02076250       0.48649687
H        6.39754412       4.95119544      -1.06466717
