16
Properties=species:S:1:pos:R:3 -1515.3799831424851=T 11.099496=T 12.04085=T -9.5494=T -7.4285=T -10.866=T 1.3733=T -0.558=T 0.31=T 10.44506=T 0.19648=T 5.3395314816=T 6.617194813=T 0.493715136=T pbc="F F F"
C        1.14701263      -0.35324466      -0.39880084
O        2.54704462      -0.14096254      -0.28521806
C        2.87203233       1.24243449      -0.28473211
C        4.38332097       1.34935141      -0.15290232
O        4.69094577       2.75530856      -0.16200379
N        6.07971796       2.91786078      -0.02927040
C        6.40618313       4.15677159      -0.03448278
H        0.98447435      -1.43824861      -0.39238183
H        0.74841992       0.06739583      -1.34138262
H        0.59843729       0.10055335       0.44822230
H        2.37790897       1.76334274       0.55939910
H        2.53607481       1.72679621      -1.22317196
H        4.88275801       0.84622186      -0.99544549
H        4.72415611       0.89306690       0.78934053
H        7.47046792       4.36960754       0.06508969
H        5.67903519       4.97132456      -0.13174942
