21
Properties=species:S:1:pos:R:3 -2070.9280859772425=T 13.848654=T 15.37208=T -9.0167=T -6.9228=T -8.897=T 0.9878=T 0.0757=T 1.501=T 8.33878=T -0.83825=T 6.2479273092=T 0.420683988=T pbc="F F F"
C        1.71420502      -0.49842181       1.22414325
C        2.62958784      -0.18713216       0.02956824
C        3.01873196       1.26138486      -0.04680598
C        4.26849957       1.73763003       0.03692307
C        4.66207074       3.19028131      -0.02471887
C        5.32752250       3.63356825       1.29004103
C        5.59329236       3.45775357      -1.22003292
H        1.41783899      -1.55736581       1.23021186
H        0.79576823       0.10676861       1.18926234
H        2.22217194      -0.27894876       2.17440279
H        2.10512988      -0.47190883      -0.90003601
H        3.53701084      -0.81042759       0.08012717
H        2.19258561       1.97561722      -0.16712561
H        5.09769509       1.02630973       0.16194236
H        3.74203970       3.78552717      -0.16362259
H        6.24485076       3.05317721       1.47832941
H        4.65412639       3.48651164       2.14608684
H        5.60736512       4.69712714       1.24868846
H        6.52278063       2.87328266      -1.12909022
H        5.87111080       4.52148588      -1.26972652
H        5.11319601       3.18158969      -2.16932811
