17
Properties=species:S:1:pos:R:3 -1679.6120281828962=T 10.971897=T 11.85152=T -8.431=T -6.2973=T -9.773=T 0.8302=T -0.1187=T 3.282=T 9.26104=T -3.09563=T 8.0918966956=T 10.8233454714=T 0.206220248=T pbc="F F F"
N        0.80524951       0.00246523      -0.07062033
C        2.22469461       0.02402057       0.19613806
C        3.14555492      -0.85002075      -0.63606088
C        2.60463723      -1.42974437      -1.95254250
N        2.70997578      -0.36981401      -2.98675512
C        2.62304294       0.90993184      -2.23923661
C        3.15732915       0.65693058      -0.82071962
H        0.36933492       0.87290801       0.24199426
H        0.35649583      -0.75970770       0.44234764
H        2.54634637       0.14946875       1.24008970
H        3.96374548      -1.36181733      -0.12674290
H        3.16980081      -2.31916401      -2.26406425
H        1.54727400      -1.71641441      -1.84666233
H        3.65911227      -0.42409134      -3.36884999
H        3.20131588       1.68897606      -2.75519649
H        1.57044700       1.23005058      -2.20781949
H        3.98425329       1.26392229      -0.44851915
