13
Properties=species:S:1:pos:R:3 -1339.707599294507=T 10.103241=T 10.07514=T -8.7705=T -6.7846=T -9.226=T 1.0166=T -0.6636=T -0.036=T 8.64322=T 0.61714=T 4.246210535=T 5.2440374644=T 0.398372306=T pbc="F F F"
C        0.87017714      -0.23160625      -0.20513979
C        2.35400696      -0.28788819       0.02437239
C        3.06013507      -1.43216866      -0.04942838
N        3.00302915       0.92335215       0.32717434
C        2.46200269       2.18306306       0.44667725
O        3.12514439       3.17719157       0.71629896
H        0.61422309       0.42586091      -1.04964051
H        0.33578524       0.14254634       0.68108354
H        0.49730443      -1.23705977      -0.42970667
H        2.56152700      -2.36994494      -0.28316809
H        4.13722587      -1.45818372       0.11965203
H        4.01164182       0.88733029       0.48354616
H        1.36657715       2.21320721       0.27542877
