15
Properties=species:S:1:pos:R:3 -1537.096384106401=T 11.655816=T 12.35131=T -8.9349=T -7.0179=T -9.84=T 0.8753=T -0.18=T 0.952=T 9.13196=T -0.30887=T 4.3242721206=T 10.5771960656=T 0.356598127=T pbc="F F F"
C        0.95712605      -0.08711545       0.05345139
C        2.49953396       0.02722340      -0.01228960
C        3.03366131      -0.68822286      -1.16898697
C        3.47288644      -1.25627459      -2.14897814
C        2.92446891       1.51320749       0.02900196
N        3.02238391       2.11704535      -1.20484817
N        3.07675325       2.19834291       1.10788173
H        0.58350193       0.41864502       0.95320587
H        0.65467272      -1.14166900       0.08497823
H        0.50179796       0.38275721      -0.82763451
H        2.92447722      -0.43682495       0.89391970
H        3.85894314      -1.77887760      -3.00048281
H        3.29466120       1.52326560      -1.98431702
H        3.42685837       3.04982986      -1.18886875
H        2.90589362       1.61575762       1.93494709
