19
Properties=species:S:1:pos:R:3 -1795.7463774692783=T 12.051893=T 12.96963=T -8.3479=T -6.2688=T -9.695=T 0.8742=T -0.0604=T 3.255=T 8.95907=T -2.96244=T 7.6599418702=T 13.192172393=T 0.082626837=T pbc="F F F"
C        2.16995487      -0.39962407      -1.35307718
N        2.34190337       0.06538189       0.02066648
C        2.92273660      -0.98180251       0.85666635
C        3.15675867       1.26998682       0.06050070
C        2.56607402       2.56423022      -0.54600712
N        2.95720518       3.34910319       0.67662927
C        3.22686321       2.05329757       1.39220596
H        1.69708059       0.38643681      -1.95868541
H        1.51151612      -1.28005290      -1.36495125
H        3.13267729      -0.68052392      -1.83815605
H        2.26665508      -1.86405414       0.85216780
H        3.00977671      -0.62848751       1.89390199
H        3.93315252      -1.29977517       0.51168790
H        4.18282340       1.08338191      -0.33845048
H        1.46803605       2.51672320      -0.63097779
H        2.98972494       2.92299539      -1.49491926
H        3.84854416       3.81904428       0.49660789
H        4.16753932       2.01231141       1.95971516
H        2.38576791       1.80719752       2.06090504
