17
Properties=species:S:1:pos:R:3 -1769.4485573198112=T 12.489481=T 13.86002=T -9.6834=T -7.4225=T -9.656=T 0.9432=T 0.0695=T 2.331=T 9.22187=T -1.90608=T 4.3380717624=T 10.176584901=T 0.397596959=T pbc="F F F"
C        0.94747075      -0.02082214       0.01086274
C        2.46298773       0.03163250       0.05583039
C        3.17960145       1.08852655       0.94069637
C        4.25018389       0.02528926       1.29238615
C        3.23158332      -1.07818887       0.85902506
C        3.70176326      -2.25874444       0.16658790
C        4.10551246      -3.23150417      -0.44078693
H        0.59639516      -0.90450146      -0.54293260
H        0.53411919       0.87070500      -0.48491523
H        0.52450957      -0.06620520       1.02661005
H        2.87891175       0.06438957      -0.96403763
H        2.56640716       1.34984670       1.81723453
H        3.51647283       2.01446246       0.45624488
H        5.10280852       0.05626571       0.60060612
H        4.62224576      -0.02180634       2.32380038
H        2.62013450      -1.37343895       1.72938870
H        4.45978270      -4.09025618      -0.97288087
