16
Properties=species:S:1:pos:R:3 -1550.300366202144=T 10.543775=T 11.29344=T -9.4193=T -7.4462=T -10.803=T 0.8801=T -0.1853=T 0.306=T 9.86206=T 0.32338=T 4.2438300038=T 12.5161263294=T 0.249490252=T pbc="F F F"
C        0.63222920       0.81412239       0.69590516
C        1.25447562      -0.41490164       0.06569846
O        2.64296504      -0.44828144       0.48121313
N        3.28352845      -1.58195440      -0.07636814
C        3.88686322      -2.49095186       0.78891760
C        3.35613933      -2.51953724       2.20293090
O        4.76054132      -3.23737931       0.35699467
H       -0.42523176       0.88172583       0.40623188
H        1.14059195       1.72856941       0.36150341
H        0.68704892       0.76555614       1.79196526
H        1.20624148      -0.37181727      -1.03612021
H        0.75467436      -1.34145423       0.39555115
H        3.85621048      -1.33230328      -0.88797015
H        2.26215134      -2.61614947       2.21690720
H        3.60563304      -1.58221668       2.71921280
H        3.81367800      -3.36590695       2.72406686
