15
Properties=species:S:1:pos:R:3 -1491.64238368357=T 10.631579=T 11.48999=T -9.3392=T -7.1526=T -9.497=T 1.0445=T 0.0373=T 1.343=T 8.97309=T -0.77518=T 6.6624745002=T 0.486812802=T pbc="F F F"
C        1.44875523       0.49086271      -1.34598868
C        2.29815518      -0.10602661      -0.50200016
C        3.13182305       0.60053346       0.52856573
C        4.61680632       0.35641931       0.33169686
C        5.57103295       0.34155705       1.47267832
N        5.13694117      -0.92970242       0.84827469
H        0.87391423      -0.07891619      -2.07768227
H        1.29438144       1.57332726      -1.32845241
H        2.42859038      -1.19312686      -0.54583240
H        2.86449770       0.23316493       1.53421950
H        2.92744304       1.68371904       0.50542618
H        5.01443386       0.70446202      -0.62803575
H        5.19579751       0.49810466       2.48750308
H        6.58938652       0.69753896       1.29808722
H        5.87662144      -1.27943731       0.23170011
