15
Properties=species:S:1:pos:R:3 -1559.8940054272705=T 9.733685=T 10.72108=T -9.467=T -7.2857=T -10.985=T 0.84=T -1.1541=T -0.129=T 10.20447=T 0.7736=T 3.6718577886=T 8.218907954=T 0.113073387=T pbc="F F F"
O        0.95886176       0.20443338       0.36242178
C        2.16856843       0.27714620       0.45535776
C        3.03327189       1.35536649      -0.20227362
C        2.34541962       2.73883497      -0.28724598
C        3.22025090       3.63318260       0.62028444
C        4.00937663       2.61485966       1.44530491
O        4.25105400       1.52007940       0.54095020
H        2.76503243      -0.47362094       1.03517766
H        3.31517202       0.95689775      -1.19420181
H        1.30973827       2.65523296       0.07093658
H        2.31111321       3.11047256      -1.31849466
H        3.91161833       4.23784797       0.01644860
H        2.62573833       4.31244019       1.24608832
H        4.98769469       2.97032860       1.79398752
H        3.42265948       2.27089821       2.32006831
