9
Properties=species:S:1:pos:R:3 -885.0635743248774=T 6.981404=T 7.26011=T -9.6751=T -7.2431=T -9.82=T 0.9297=T -0.2174=T 2.348=T 9.51129=T -1.96204=T 4.4013294196=T 10.9012706724=T 0.490122346=T pbc="F F F"
N        0.97806547      -0.03936246       0.02147802
C        2.45273294      -0.00199788      -0.01670349
C        2.95541427       1.36866659       0.01031824
C        3.37712602       2.50643166       0.00022227
H        0.66901843      -1.01014450      -0.07072170
H        0.60748690       0.46309859      -0.78931771
H        2.90242982      -0.51016858      -0.89458760
H        2.82779124      -0.53248311       0.87486225
H        3.74573491       3.51182971       0.00258971
