21
Properties=species:S:1:pos:R:3 -2013.3077228317227=T 12.444609=T 14.01472=T -9.3576=T -7.2744=T -11.371=T 0.9644=T 0.071=T 3.086=T 10.63902=T -2.79063=T 9.1682191616=T 10.506263675=T 0.098269059=T pbc="F F F"
C        8.44102400       0.12853886      -1.37578208
C        7.03423347       0.41825378      -0.88349414
O        7.12338249       1.05971974       0.38758766
C        5.85906096       1.48583272       0.92501282
C        5.06914254       0.31329340       1.51012784
C        6.15907634       2.55498792       1.97771424
C        6.82398772       3.81030328       1.41262967
H        8.40493836      -0.36542531      -2.35697847
H        8.96824380      -0.53255765      -0.67407111
H        9.01822833       1.05836925      -1.47435234
H        6.45716200      -0.52412165      -0.81160989
H        6.49923649       1.07796656      -1.59700434
H        5.27008517       1.94955735       0.10422581
H        5.62991137      -0.14584577       2.33755320
H        4.86968552      -0.46116639       0.75710156
H        4.09872959       0.65774836       1.89591120
H        6.80266453       2.09884529       2.74902675
H        5.21107776       2.81886725       2.47436299
H        7.77192514       3.55932915       0.91791504
H        7.03551483       4.53833628       2.20864721
H        6.17565958       4.30449757       0.67228638
