21
Properties=species:S:1:pos:R:3 -2021.986609052318=T 12.297287=T 13.87381=T -9.8568=T -7.7337=T -11.762=T 0.8365=T -0.1344=T 2.741=T 11.28962=T -2.41959=T 9.4519363254=T 10.388229003=T 0.105322684=T pbc="F F F"
C        1.12248678       0.54131515       0.59487489
C        2.52275863       1.03334763       0.96711469
C        3.52919585       0.85489492      -0.17325070
C        4.92642637       1.47570043       0.05515484
C        5.60815734       0.92233118       1.30837478
C        5.80817887       1.24032889      -1.17870939
O        4.80645776       2.90214760       0.29573268
H        0.41589947       0.67506674       1.42676679
H        1.12902814      -0.52841123       0.33260462
H        0.72339217       1.09055902      -0.27241653
H        2.87076999       0.48986644       1.86063276
H        2.48655732       2.09813625       1.24739491
H        3.10961811       1.30238109      -1.09451114
H        3.65429146      -0.22024299      -0.39415708
H        5.03738991       1.18040281       2.20955416
H        6.61404946       1.35249043       1.40908626
H        5.69859855      -0.17149664       1.24987082
H        5.33718783       1.65832106      -2.08297120
H        5.97088242       0.16663241      -1.35521326
H        6.78540318       1.72422553      -1.04238560
H        4.45810040       3.30476329      -0.51989731
