15
Properties=species:S:1:pos:R:3 -1543.822852314688=T 9.551677=T 10.52998=T -9.2183=T -7.0351=T -10.811=T 0.9224=T -0.0303=T 2.911=T 10.51742=T -2.63358=T 8.448344047=T 10.4132989722=T 0.150233435=T pbc="F F F"
O        0.81904874       0.15047385      -0.13393865
C        2.16625139       0.00700020       0.22124245
C        3.09193763      -0.93424440      -0.55088478
C        2.57758437      -1.45027827      -1.89324126
C        2.75740734      -0.23794000      -2.82210397
O        2.68339944       0.93669014      -1.96876069
C        3.21868009       0.56786184      -0.70223809
H        0.82709960       0.69462517      -0.95059233
H        2.32502119       0.08064924       1.29963683
H        3.83322776      -1.50895073       0.00491691
H        3.15808928      -2.31671817      -2.23741367
H        1.51950932      -1.74575182      -1.82051486
H        3.74439393      -0.25899711      -3.31864902
H        1.97420771      -0.13176527      -3.58568480
H        4.06938221       1.16619535      -0.36877406
