12
Properties=species:S:1:pos:R:3 -1284.007586704355=T 11.728262=T 12.16958=T -8.3483=T -6.4096=T -8.38=T 0.9643=T -0.5677=T -0.034=T 7.99291=T 0.75424=T 4.1197944094=T 11.7922836628=T 0.295994391=T pbc="F F F"
C        0.88836999       0.10224423      -0.00433509
C        2.37742258      -0.01760799      -0.00571694
N        3.21310689       0.98413046      -0.00867838
C        4.52613531       0.56643493      -0.01064293
C        4.71035558      -0.79320512      -0.00915265
O        5.84652476      -1.54578300      -0.01002579
S        3.16509810      -1.61287916      -0.00499844
H        0.63268702       1.16864032       0.00514535
H        0.44087241      -0.37467790       0.88002029
H        0.44088439      -0.35840717      -0.89739726
H        5.32945579       1.30345836      -0.01301218
H        6.61214717      -0.94246794      -0.01199598
