13
Properties=species:S:1:pos:R:3 -1345.9804903659945=T 11.69217=T 12.24213=T -8.8243=T -6.681=T -8.504=T 0.7589=T -0.8725=T 0.597=T 8.0899=T -0.0605=T 3.8858080302=T 11.6398924702=T 0.586039066=T pbc="F F F"
N        0.97621629      -0.11747510       0.00757699
C        2.44947964      -0.03088464      -0.01328710
C        2.91225991       1.35108770       0.00858850
C        3.29189448       2.51070754      -0.00178862
C        3.78358835       3.83989257      -0.00635362
C        3.01939804       4.94952716       0.01681210
H        0.70096487      -1.09841944      -0.08530158
H        0.59981656       0.36919237      -0.81015613
H        2.92460800      -0.53493231      -0.88126775
H        2.83028624      -0.54615065       0.88581737
H        4.87396734       3.94394963      -0.03190944
H        1.93085412       4.89001682       0.04438132
H        3.47624615       5.93868835       0.00948797
