16
Properties=species:S:1:pos:R:3 -1519.7759076587108=T 11.100221=T 11.51805=T -8.0112=T -6.0768=T -8.877=T 0.8715=T -0.0535=T 1.131=T 8.06542=T -0.51794=T 4.7793255378=T 12.666595739=T 0.241146329=T pbc="F F F"
C        0.96626380       0.11425089       0.26666973
N        2.40557157      -0.02147724       0.16709233
C        3.08048547       1.05927629       0.01815447
N        4.44057800       1.09354979      -0.19150027
C        5.20356317      -0.14114433      -0.11347398
C        5.17013768       2.32765390       0.03093173
H        0.60599670      -0.36717337       1.19050346
H        0.47690517      -0.40829578      -0.57220571
H        0.61256517       1.16616807       0.26468070
H        2.61946605       2.06716205       0.01034158
H        4.55688044      -0.97020459      -0.42166497
H        5.55654917      -0.34206327       0.91519673
H        6.07717864      -0.07529828      -0.77830592
H        4.49840545       3.18478709      -0.11028999
H        5.99543607       2.41438091      -0.69232233
H        5.59833744       2.38581787       1.05011242
