17
Properties=species:S:1:pos:R:3 -1713.6008138538011=T 10.595783=T 12.00854=T -9.978=T -7.9379=T -11.364=T 0.9952=T 0.0006=T 0.192=T 10.25531=T 0.46046=T 4.4241180464=T 8.6364184104=T 0.112823182=T pbc="F F F"
C        2.20211756       0.60153027       2.07918998
C        2.27384234       0.91021530       0.59409795
O        3.02916093       2.13133588       0.34137717
C        4.37769007       1.98043754       0.19318872
O        4.95566034       0.91041533       0.25594274
C        5.03278007       3.32300174      -0.06789280
C        6.55146277       3.23924663      -0.17735894
H        1.56017493      -0.27619221       2.24315100
H        1.77561182       1.44711218       2.63623912
H        3.19886056       0.37499056       2.47959774
H        1.27983600       1.11862135       0.17638876
H        2.74244017       0.08717006       0.03773117
H        4.71984398       4.00879905       0.73542483
H        4.58475345       3.73182138      -0.98834434
H        6.99376351       2.84796470       0.74844650
H        6.97641767       4.23333454      -0.37070873
H        6.85234384       2.56837568      -0.99259087
