19
Properties=species:S:1:pos:R:3 -1824.7111262794278=T 12.001544=T 12.81019=T -8.3802=T -6.3538=T -9.706=T 0.9147=T -0.0156=T 3.247=T 8.93985=T -2.94178=T 7.781671325=T 11.575828904=T 0.150796532=T pbc="F F F"
C        1.16747071      -0.07146025      -0.19701862
N        2.57318000      -0.12369977       0.16378465
C        3.04444860       1.06270949       0.88757241
C        4.41949464       0.63728100       1.43405383
C        4.39798099      -0.92061661       1.41881404
N        5.40443035      -1.42353519       0.47115745
C        2.92945477      -1.22933500       1.05406678
H        0.88229961      -0.98917079      -0.73168117
H        0.98491826       0.78160431      -0.86691779
H        0.50140524       0.03591438       0.68925755
H        2.35349919       1.31444350       1.72635782
H        3.08668586       1.93436338       0.21700732
H        5.24143240       0.98347202       0.79241917
H        4.59752386       1.03746080       2.44116018
H        4.64511962      -1.33448342       2.40789316
H        5.12792068      -1.13444822      -0.47337423
H        5.39355133      -2.44756160       0.46890662
H        2.80881424      -2.20152399       0.55128469
H        2.29350965      -1.23330406       1.97361613
