21
Properties=species:S:1:pos:R:3 -1938.837836660279=T 12.95487=T 14.26266=T -8.2873=T -6.2522=T -9.724=T 0.9389=T 0.0253=T 3.402=T 8.9405=T -3.12418=T 7.7616227888=T 11.8707544022=T 0.217042652=T pbc="F F F"
C        2.10040040      -1.05705855      -0.19033224
N        3.21904785      -0.20271123       0.20056288
C        2.93703776       1.22098002       0.01640684
C        4.11848888       2.05879754       0.51099980
N        3.99759981       3.48550188       0.19925795
C        2.91041727       4.12055501       0.94004201
C        5.25720668       4.17422892       0.46423133
H        2.39732781      -2.11215022      -0.11051629
H        1.72457024      -0.87775157      -1.22032331
H        1.25938534      -0.89647651       0.50215076
H        4.04009980      -0.45180068      -0.35775796
H        2.03200620       1.44986347       0.60345777
H        2.71464681       1.49752565      -1.03770146
H        5.03263853       1.69452051       0.01105126
H        4.25790021       1.87983647       1.60170007
H        1.94506535       3.67112412       0.67208461
H        2.86530092       5.18704267       0.67706384
H        3.03762636       4.04213714       2.04441209
H        6.06122116       3.72445294      -0.13621759
H        5.56054684       4.13270364       1.53543699
H        5.16735578       5.23224880       0.17780067
