13
Properties=species:S:1:pos:R:3 -1343.6004530689324=T 12.580272=T 12.54805=T -7.6313=T -5.8769=T -7.865=T 1.1468=T -0.4265=T 0.042=T 7.40047=T 0.68579=T 3.7841891046=T 0.188443415=T pbc="F F F"
C        2.85548937      -1.27472868       0.48223243
N        2.35342867      -0.04326139      -0.11359099
C        3.09968885       1.12194864      -0.02820480
C        2.68687709       2.43161236      -0.21211388
N        3.66556238       3.38865161      -0.13096165
C        4.83195766       2.86041354       0.11481574
S        4.82636296       1.10496878       0.27779566
H        2.10807788      -2.06509378       0.34311973
H        3.08038901      -1.17866368       1.56070273
H        3.77348068      -1.58957663      -0.03591881
H        1.36038272       0.11812376       0.04052526
H        1.65794427       2.72573645      -0.41827735
H        5.76492846       3.40956902       0.22162594
