17
Properties=species:S:1:pos:R:3 -1692.9520343867878=T 12.696574=T 12.94506=T -8.033=T -6.2143=T -8.64=T 0.986=T -0.2561=T 0.727=T 7.96551=T -0.16718=T 4.9133915996=T 5.33945709=T 0.399323935=T pbc="F F F"
C        3.47366656      -2.09771345       0.82025942
C        2.93529763      -0.83104545       0.21068474
C        1.62745661      -0.70256402      -0.09918193
N        3.82405410       0.21620026      -0.09348193
C        5.14594852       0.48040946       0.28488904
C        5.68421891       1.72357199      -0.38881086
N        5.91594304      -0.16701591       1.08919259
H        4.36048787      -2.46396153       0.28428766
H        2.69822938      -2.87157586       0.77606216
H        3.74206785      -1.96494032       1.87937746
H        0.93809154      -1.52533743       0.07472281
H        1.22339595       0.21214281      -0.53568429
H        3.39681047       0.95688014      -0.64498222
H        5.09892219       2.61144619      -0.10304198
H        5.64607838       1.63232505      -1.48467814
H        6.72187849       1.86966917      -0.07497457
H        5.44649254      -0.97433109       1.50811004
