18
Properties=species:S:1:pos:R:3 -1749.9785247713996=T 11.781327=T 12.55689=T -9.0773=T -6.9736=T -9.025=T 0.7764=T -0.3678=T 1.246=T 8.42553=T -0.57267=T 6.0472559682=T 0.322290408=T pbc="F F F"
C        0.93870678       0.00358159       0.11067097
C        2.44270528      -0.01411871       0.05328619
C        3.09943913      -1.38155360      -0.02463850
N        3.70459948      -1.60815244      -1.36478657
C        3.17642876       1.11614179       0.02860738
C        4.68373252       1.16104427      -0.07207722
O        5.17503249       0.83848368      -1.37765740
H        0.54663973       1.02913056       0.12261618
H        0.57054326      -0.51494968       1.01161258
H        0.49556694      -0.52110193      -0.75292368
H        2.36109256      -2.15858215       0.24554646
H        3.91964533      -1.44736607       0.70899489
H        2.97157359      -1.59270641      -2.08013167
H        4.12549188      -2.54097947      -1.40078185
H        2.64712090       2.07472328       0.03473869
H        5.12896840       0.48967893       0.69231194
H        5.04171940       2.17659005       0.14996275
H        4.79185357      -0.05495369      -1.57741113
