19
Properties=species:S:1:pos:R:3 -1795.936356576451=T 12.077013=T 13.19123=T -8.3393=T -6.3069=T -9.771=T 0.94=T 0.0305=T 3.183=T 8.97452=T -2.85927=T 7.7073293194=T 11.5910915806=T 0.105219047=T pbc="F F F"
C        2.48433023      -1.16865256      -0.09618178
N        3.73337011      -0.42144348      -0.19610270
C        4.21258485      -0.40452295      -1.57541417
C        3.57934732       0.92765166       0.35035246
C        4.90056237       1.64231598       0.54022993
C        5.42139893       2.64707023      -0.42864728
N        4.79315795       3.08805044       0.83486413
H        2.16266400      -1.21946778       0.95407118
H        2.63897503      -2.19596548      -0.45698904
H        1.65725421      -0.71744531      -0.69037834
H        4.34981492      -1.43678840      -1.92815343
H        5.18187139       0.10721554      -1.63360776
H        3.50674202       0.10703176      -2.26974786
H        3.09575641       0.83502692       1.33682144
H        2.91237651       1.56729551      -0.27363223
H        5.64872752       1.06289830       1.09229292
H        4.83900467       2.87809721      -1.32490057
H        6.50458122       2.73944004      -0.54402628
H        5.51926034       3.35707239       1.50528939
