18
Properties=species:S:1:pos:R:3 -1795.8590585928455=T 12.45337=T 13.66067=T -9.1768=T -6.9486=T -9.525=T 0.9931=T 0.0684=T 1.343=T 8.98395=T -0.76553=T 6.6677315066=T 0.450799284=T pbc="F F F"
N        0.83592983      -0.34978917       0.07396182
C        2.19657282      -0.45185511      -0.40986931
C        2.46725900       0.04219199      -1.81357781
C        2.95875035       0.83291186      -0.62079304
C        4.44244469       0.91181276      -0.29925272
C        4.70821490       1.20603801       1.15074023
C        5.41924772       0.43180975       1.97844869
H        0.82581547      -0.33152692       1.09708186
H        0.29430320      -1.16900335      -0.21342555
H        2.80853181      -1.30522049      -0.08390630
H        1.61506825       0.44181966      -2.36386703
H        3.20326408      -0.49609546      -2.41337848
H        2.38085626       1.73424186      -0.39809547
H        4.89666276       1.70430970      -0.92211080
H        4.93842236      -0.03107155      -0.58354593
H        4.26478587       2.13084468       1.53971387
H        5.87860857      -0.49860491       1.63360596
H        5.57247206       0.70146670       3.02460000
