14
Properties=species:S:1:pos:R:3 -1419.7392074496288=T 11.646849=T 12.52493=T -9.6385=T -7.5661=T -9.856=T 1.2774=T -0.6497=T 0.252=T 9.47203=T 0.26946=T 4.3773133314=T 10.7165811268=T 0.742284671=T pbc="F F F"
C        1.04950232      -0.04000368      -0.15752222
N        2.31899533      -0.08384937       0.00808738
O        2.87667362       1.20672626       0.01610288
C        4.30059807       1.09453894       0.20400184
C        4.84548072       2.52476540       0.20401238
C        6.29019160       2.55085863       0.38580415
C        7.49340105       2.54904631       0.54302313
H        0.53744513      -1.00201573      -0.17551438
H        0.48943855       0.89479715      -0.27608161
H        4.74111321       0.50517060      -0.61473583
H        4.51351334       0.59161717       1.15970064
H        4.35592717       3.09951592       1.00705381
H        4.57768177       3.01460956      -0.74639181
H        8.55560812       2.55661284       0.67788964
