15
Properties=species:S:1:pos:R:3 -1583.4175453250132=T 13.370656=T 14.36752=T -8.7895=T -6.7269=T -8.428=T 0.4989=T -1.0155=T 0.492=T 8.01965=T 0.10713=T 3.8487486148=T 5.7713871182=T 0.431331881=T pbc="F F F"
C        0.92422846      -0.05601777       0.02108273
C        2.37548786       0.01032118       0.00652981
C        3.59391234       0.07696239      -0.00871745
C        5.00973978       0.09799109      -0.02456569
C        5.77273027       1.20187064      -0.18970196
C        7.26747729       1.17067435      -0.21678584
O        7.79901215       1.67256152      -1.45700714
H        0.47875883       0.94943932       0.04599459
H        0.56141806      -0.60807317       0.90136837
H        0.54254156      -0.57055564      -0.87417971
H        5.51156152      -0.86787387       0.11788989
H        5.29668890       2.17529882      -0.34096111
H        7.63237501       0.14725137      -0.00868459
H        7.68535529       1.83682126       0.55477292
H        7.37540268       1.16422851      -2.17243483
