15
Properties=species:S:1:pos:R:3 -1557.3151926563598=T 11.399415=T 11.59416=T -7.7672=T -5.8403=T -8.163=T 1.4539=T -0.187=T 0.879=T 7.6533=T -0.23801=T 4.3511894812=T 11.9520272252=T 0.30191917=T pbc="F F F"
C        1.03455756      -0.02138320      -0.30255061
N        2.47940071       0.00449945      -0.10865502
C        3.10464487       1.23748358       0.16072301
C        4.39750312       1.27953150       0.51994292
C        5.18767142      -0.00278341       0.56266887
N        4.34261849      -1.18635530       0.81116721
C        3.12140863      -1.11484725       0.43503170
H        0.72531717      -1.04056879      -0.56518855
H        0.76030113       0.63912653      -1.13628295
H        0.47978528       0.29417952       0.59875037
H        2.46036081       2.11527591       0.10407014
H        4.85818260       2.22797236       0.79579077
H        5.73130934      -0.16683494      -0.39032555
H        5.96371077       0.03671760       1.34401410
H        2.46952811      -1.98940354       0.55490358
