14
Properties=species:S:1:pos:R:3 -1476.1488568851912=T 10.01444=T 11.29226=T -10.3169=T -8.1725=T -11.621=T 1.2661=T -0.5261=T 1.313=T 11.24998=T -0.90007=T 5.373863205=T 12.7174052018=T 0.139765585=T pbc="F F F"
C        0.88272742       0.02860216       0.06393881
C        2.39902084      -0.00826949       0.02154098
C        3.19486268       0.97829237       0.90264980
O        3.95645750      -0.10851968       1.52085095
C        3.11795258      -1.10015184       0.86828348
C        3.87768721      -2.11520002       0.14064375
N        4.45745113      -2.92593880      -0.46607297
H        0.44968400      -0.83631044      -0.45883257
H        0.50277753       0.93597858      -0.42739816
H        0.51189996       0.02486238       1.09981070
H        2.76562213      -0.01509186      -1.01373955
H        2.58600403       1.51125011       1.65263076
H        3.85669447       1.68759641       0.38495490
H        2.45293850      -1.60737987       1.59213912
