18
Properties=species:S:1:pos:R:3 -1746.3680763843959=T 11.119438=T 12.41593=T -9.5649=T -7.2731=T -10.736=T 0.7814=T -0.1378=T 2.81=T 10.17098=T -2.52493=T 8.4965498038=T 11.1636126498=T 0.140829782=T pbc="F F F"
C        0.79739468      -0.60585345      -0.42831040
C        2.27408874      -0.56722382      -0.73287247
N        2.76777873       0.19296982      -1.90793691
C        3.06695511       0.67738671      -0.52752968
C        4.52502370       0.71375491      -0.10720017
C        5.41186161      -0.36561517      -0.74018430
O        5.51587229      -0.23934266      -2.15373719
H        0.61848910      -0.95198839       0.60073851
H        0.27102786      -1.29301715      -1.10776360
H        0.34419726       0.39229185      -0.53064705
H        2.79273558      -1.52357094      -0.61195226
H        2.00394150       0.73756085      -2.32164477
H        2.47921381       1.53928564      -0.18987689
H        4.57739548       0.62737932       0.99232438
H        4.94134914       1.70011400      -0.37215198
H        5.04564425      -1.37313708      -0.45220841
H        6.43135681      -0.27525671      -0.33433101
H        4.58069436      -0.16783773      -2.46289578
