16
Properties=species:S:1:pos:R:3 -1641.5581405054604=T 10.752477=T 11.87308=T -9.3711=T -7.3751=T -10.606=T 0.7523=T -0.1754=T 0.657=T 9.69546=T 0.03497=T 4.4355123598=T 6.4162507028=T 0.156498821=T pbc="F F F"
C        2.25747736      -0.55994993      -1.41944176
C        2.31456778       0.11000655      -0.04518770
C        3.30060911       1.27121782      -0.00151488
C        2.87592709       2.60529693      -0.68772586
C        3.00685541       3.24835848       0.71523568
O        2.89408214       4.36376322       1.18316985
N        3.33353312       2.02604104       1.26945821
H        1.53906481      -1.39086696      -1.42400081
H        3.23880369      -0.96631573      -1.70743234
H        1.94921343       0.15109887      -2.20047377
H        2.60465245      -0.63244192       0.71741828
H        1.31856303       0.48389487       0.24515565
H        4.30565841       0.93695968      -0.31379619
H        1.85460707       2.61655635      -1.09042659
H        3.57600695       3.01222190      -1.42725855
H        3.65650814       1.77771882       2.20388078
