14
Properties=species:S:1:pos:R:3 -1489.6593323324892=T 12.357798=T 13.11884=T -9.1348=T -7.071=T -9.241=T 1.0932=T -0.5549=T 1.014=T 8.91371=T -0.43547=T 4.352342551=T 6.317520651=T 0.40872296=T pbc="F F F"
C        1.69070340      -0.22372039      -1.26432866
C        2.23970713       0.16188714      -0.10512265
C        3.37075499       1.10697620       0.04958234
N        3.92267625       1.89001539      -1.05967629
C        3.12101013       2.60023365      -0.02299662
C        3.80069574       3.52551625       0.83888595
C        4.34317154       4.30591759       1.59489840
H        0.84789330      -0.91440581      -1.28689419
H        2.06245123       0.12121334      -2.23235693
H        1.84996326      -0.24501740       0.83397572
H        4.13189727       0.80387910       0.77585274
H        3.33057215       1.77467383      -1.89054624
H        2.09727137       2.87870955      -0.29185386
H        4.83461224       4.99563155       2.24997029
