17
Properties=species:S:1:pos:R:3 -1657.2709728516202=T 11.547617=T 12.79557=T -8.9322=T -6.7999=T -10.17=T 0.991=T 0.0777=T 3.567=T 9.76723=T -3.28493=T 8.4986947616=T 12.0161899802=T 0.29220908=T pbc="F F F"
N        1.11268549       0.28849149      -0.43500662
C        2.49318642       0.02896984      -0.08620367
C        3.17824625      -1.11915651      -0.79498556
C        3.53693009       0.30567122      -1.14200491
N        4.82216859       0.79687122      -0.70488038
C        5.81333926       0.99681126      -1.77123734
C        5.15023785       2.16734671      -1.12358737
H        0.85288632       1.24375199      -0.17658281
H        0.49336866      -0.33852503       0.08470936
H        2.83553447       0.20915180       0.94105729
H        2.58740022      -1.67581914      -1.52238018
H        3.91459129      -1.68965462      -0.22928498
H        3.14845714       0.68464519      -2.09890552
H        5.51125203       0.75879983      -2.79627141
H        6.84211076       0.73346365      -1.51504243
H        5.68820655       2.76928712      -0.38763748
H        4.40687861       2.70899398      -1.71775599
