11
Properties=species:S:1:pos:R:3 -1283.159906703155=T 11.21082=T 11.30746=T -8.4382=T -6.5066=T -8.052=T 0.5496=T -0.3407=T 0.526=T 7.59347=T -0.07689=T 4.1583540554=T 6.5125134332=T 0.431065229=T pbc="F F F"
C        0.95122954      -0.01371881      -0.00273851
C        2.16721607      -0.01202984       0.00067881
C        3.58388552       0.00946878       0.00426788
C        4.40077737       1.13197993       0.00362096
N        5.68718415       0.64420131       0.00815039
C        5.60763611      -0.72809026       0.01133375
N        4.35854951      -1.14715210       0.00911241
H       -0.11905610      -0.02245178      -0.00572597
H        4.17297449       2.19131662       0.00044076
H        6.53559992       1.20240939       0.00898324
H        6.49153342      -1.35980324       0.01515627
