15
Properties=species:S:1:pos:R:3 -1549.5123998471317=T 10.279408=T 11.07723=T -9.1023=T -6.86=T -9.038=T 1.1106=T -0.1332=T 1.298=T 8.60227=T -0.69231=T 6.0883449286=T 0.306664663=T pbc="F F F"
O        2.36786701      -0.30522759      -1.47977546
C        2.32318802       0.16149350      -0.12520493
C        3.30855034       1.32985424      -0.01271895
O        3.40589338       1.71949664       1.37352376
C        3.14717113       3.13131944       1.50111976
C        2.78425305       3.59205246       0.12142078
C        2.88354636       2.57454070      -0.73885365
H        1.78713443      -1.08008121      -1.55027809
H        2.63347419      -0.62325487       0.58710329
H        1.31292537       0.51243053       0.15380184
H        4.29594703       0.97262876      -0.37073258
H        4.05059237       3.64143130       1.89000587
H        2.33523155       3.28900804       2.23554205
H        2.49413946       4.61622643      -0.11153070
H        2.69324632       2.59452163      -1.81038301
