12
Properties=species:S:1:pos:R:3 -1140.1780826604404=T 8.047475=T 8.38453=T -9.3076=T -7.1515=T -10.294=T 0.9484=T 0.0069=T 0.662=T 9.7218=T -0.01839=T 5.571000945=T 12.0013736532=T 0.327730098=T pbc="F F F"
C        1.00062526       0.02646368      -0.00446410
C        2.50063386       0.01129152      -0.00286847
C        3.23492704      -1.29949175      -0.00662148
N        3.08060067       1.16292510       0.00101645
O        4.50143002       1.01829042       0.00038838
H        0.62372179       1.05595058       0.00152257
H        0.60775679      -0.50512884       0.87677196
H        0.61003480      -0.49357080      -0.89364957
H        2.53847557      -2.14607258       0.00179592
H        3.90015758      -1.36995766       0.86674008
H        3.88283415      -1.37456924      -0.89270174
H        4.78431246       1.94919957       0.00472999
