15
Properties=species:S:1:pos:R:3 -1556.6872029754186=T 10.208917=T 11.11777=T -8.7766=T -6.6089=T -9.144=T 1.0253=T 0.0607=T 1.154=T 8.70653=T -0.61049=T 6.045061416=T 0.285597357=T pbc="F F F"
C        0.95648308      -0.04141912       0.25997211
C        2.36395391       0.00431670      -0.28178818
O        2.47743083       1.08122636      -1.18402441
C        3.83276227       1.23488847      -1.64740021
C        4.43866491      -0.09641727      -1.97279420
C        3.79404647      -1.23008240      -1.65529322
O        2.63203393      -1.26544591      -0.93037015
H        0.74739078       0.87357598       0.82765609
H        0.83683434      -0.91024402       0.91853073
H        0.24451345      -0.11902760      -0.57203755
H        3.12702642       0.10564756       0.51750409
H        4.42768647       1.79598039      -0.89837148
H        3.75831510       1.86537630      -2.54719679
H        5.37772376      -0.14219248      -2.52263401
H        4.12810427      -2.22837296      -1.94052282
