19
Properties=species:S:1:pos:R:3 -1802.9925577328072=T 12.035677=T 13.16543=T -8.976=T -6.8872=T -10.468=T 0.948=T 0.0151=T 3.319=T 9.81999=T -3.3229=T 8.652920947=T 12.6168277586=T 0.179388734=T pbc="F F F"
C        2.84293586      -1.32021348       0.92589804
C        2.47146630      -0.20520142      -0.05769533
N        1.02251062       0.02877782      -0.20934387
C        3.12340237       1.13274886       0.32048146
N        4.58522643       1.04356667       0.32859674
C        5.23236731       1.36664437      -0.95085423
C        5.28554245       2.32387194       0.19279805
H        3.93414608      -1.42564487       1.00826550
H        2.41911493      -2.28346640       0.60531519
H        2.44955004      -1.09216898       1.93035542
H        2.84854607      -0.47950860      -1.05961875
H        0.61455948       0.21106371       0.71411302
H        0.57504751      -0.83078768      -0.53879855
H        2.80117955       1.41985047       1.33821967
H        2.75098471       1.91088979      -0.37735442
H        4.58492224       1.63779820      -1.79197786
H        6.10527901       0.76311557      -1.20892946
H        6.19775863       2.42983362       0.78409275
H        4.67765041       3.23098041       0.10610661
