15
Properties=species:S:1:pos:R:3 -1543.7918576001225=T 10.868018=T 11.984=T -8.929=T -6.7936=T -9.414=T 0.8422=T -1.2449=T -0.076=T 10.17323=T 0.70067=T 3.6610834052=T 11.3512158664=T 0.197340502=T pbc="F F F"
C        0.03453802       0.92430026      -0.27855699
C        1.32349853       0.22944090       0.04952590
C        2.46105077       0.46779814      -0.62269001
O        3.69664406      -0.09423845      -0.42679176
C        3.79640217      -1.05273009       0.61935059
C        5.22864074      -1.54817684       0.66435759
O        5.61542289      -2.37820257       1.46169362
H       -0.75125968       0.20416202      -0.55694521
H        0.15697686       1.62671781      -1.11503378
H       -0.34718362       1.49284626       0.58437607
H        1.30481876      -0.49141727       0.86995989
H        2.51076224       1.18314144      -1.44717550
H        3.12024443      -1.91146894       0.44705364
H        3.53469116      -0.61046482       1.59933376
H        5.90504267      -1.08589785      -0.09800781
