22
Properties=species:S:1:pos:R:3 -2080.933876802175=T 13.243419=T 14.86829=T -8.5388=T -6.4507=T -10.008=T 0.9354=T 0.0227=T 3.133=T 9.259=T -2.83833=T 8.0968933314=T 11.0992763144=T 0.156511395=T pbc="F F F"
C        1.72078611      -0.50728885      -0.65953095
C        3.17628047      -0.12734344      -0.41153462
N        3.33228128       1.32325262      -0.29016305
C        4.70911680       1.73153539      -0.00807835
C        4.85362321       3.25449190       0.12624419
C        6.28035779       3.61782983       0.55231562
C        4.45516058       3.98186864      -1.16262524
H        1.61468164      -1.59495240      -0.77631778
H        1.34195248      -0.01789025      -1.56777271
H        1.08100601      -0.20082639       0.18309360
H        3.79632284      -0.45704841      -1.26294583
H        3.55994915      -0.67302566       0.48057155
H        2.72976704       1.65415704       0.47104815
H        5.34022999       1.38305374      -0.84695812
H        5.11590874       1.24750077       0.90950842
H        4.16656608       3.57955873       0.93228050
H        7.00676453       3.31157279      -0.21813452
H        6.56225891       3.12433752       1.49465487
H        6.38671934       4.70336113       0.69350209
H        5.15937930       3.73851038      -1.97480352
H        4.47043274       5.07270263      -1.02261017
H        3.45121499       3.68127227      -1.48923414
