17
Properties=species:S:1:pos:R:3 -1710.9354745649407=T 10.659331=T 12.28091=T -10.0328=T -7.9855=T -11.412=T 0.919=T -0.0149=T 0.166=T 10.31296=T 0.48507=T 4.4360207024=T 11.6494889866=T 0.151176705=T pbc="F F F"
C        1.87414750      -1.59370807       0.61439777
C        3.21525577      -1.04210805       0.12975560
C        3.16078139       0.46057119      -0.13907341
C        4.47638994       1.03869765      -0.61789529
O        5.50929404       0.42014624      -0.79616134
O        4.35903168       2.38255291      -0.83203172
C        5.56817853       3.02857327      -1.29214292
H        1.93609565      -2.67457678       0.80343513
H        1.07927258      -1.43125571      -0.12987957
H        1.55489040      -1.11018587       1.55060030
H        3.53043703      -1.56103309      -0.78841752
H        4.00120768      -1.24648817       0.87284912
H        2.86003420       1.01603262       0.76525823
H        2.39415230       0.70205483      -0.89464712
H        5.30511084       4.08388177      -1.41561857
H        5.89685807       2.59609228      -2.24622284
H        6.37160240       2.91278297      -0.55286586
