15
Properties=species:S:1:pos:R:3 -1465.031811082677=T 10.926343=T 11.42804=T -8.8065=T -6.7953=T -9.374=T 1.2638=T -0.3647=T 0.669=T 8.91965=T -0.07669=T 4.8649130736=T 5.647252335=T 0.180778157=T pbc="F F F"
N        0.98925867       2.21820453      -0.43746078
N        2.32022841       2.06069690      -0.71447639
C        2.99049849       1.19744081      -0.03837564
C        4.46346023       1.03655245      -0.23160338
C        5.22413219       2.09590156      -1.04965796
C        6.04685158       2.31346156       0.23248377
O        5.21957596       1.37756621       0.98900077
H        0.49155416       2.57483735      -1.24980379
H        0.51953802       1.40901928      -0.01336370
H        2.51724804       0.54954461       0.72178032
H        4.69051341      -0.00864242      -0.51758723
H        4.59183423       2.94030939      -1.34492246
H        5.77444576       1.71601649      -1.91811465
H        7.09325573       1.96747868       0.18141707
H        6.01673511       3.32357260       0.67096407
