12
Properties=species:S:1:pos:R:3 -1281.4142810836843=T 9.490689=T 9.63221=T -9.1525=T -7.18=T -10.349=T 0.0605=T -1.7014=T -0.754=T 9.67837=T 1.27414=T 3.9145727822=T 5.3970361884=T 0.328047772=T pbc="F F F"
O        0.92045988       0.06527538      -0.27082762
C        2.13645280       0.01424636      -0.09628542
N        2.92980286       1.15984037      -0.21944330
O        4.18146284       1.15562081       0.49767468
C        4.97628133       0.09482620      -0.04054806
C        4.25244217      -1.21473760       0.07250764
C        2.90909934      -1.23479068       0.09335032
H        2.45176657       2.03681297      -0.00605937
H        5.89473595       0.10430622       0.56333532
H        5.24596334       0.30563890      -1.09622873
H        4.83955417      -2.13532917       0.12334559
H        2.32538876      -2.15033976       0.18387895
