18
Properties=species:S:1:pos:R:3 -1793.3176672970953=T 12.503492=T 13.82648=T -9.2151=T -7.1323=T -9.593=T 1.0629=T 0.0412=T 1.277=T 9.05403=T -0.70124=T 6.6738440164=T 0.487767223=T pbc="F F F"
C        0.84465320      -0.47053464      -0.15690549
C        2.33065887      -0.47848820      -0.41909770
N        2.86223026      -0.15108427      -1.76436538
C        3.08509501       0.78666472      -0.63575735
C        4.52262288       0.97078045      -0.18450122
C        4.62016529       1.44584543       1.23757908
C        5.19144703       2.59052098       1.62932869
H        0.63334024      -0.45358463       0.92328803
H        0.36300369      -1.36662660      -0.57734599
H        0.36848476       0.41478440      -0.60586479
H        2.87631029      -1.30642297       0.04915468
H        2.09340149       0.19964723      -2.34708142
H        2.48254579       1.70271639      -0.62033942
H        5.03240308       1.68125331      -0.85609929
H        5.03540918       0.00030739      -0.29904492
H        4.17043634       0.79073469       1.99321656
H        5.64859420       3.27372078       0.90826867
H        5.22797840       2.88146555       2.68023726
