13
Properties=species:S:1:pos:R:3 -1425.1000890529303=T 10.086591=T 10.69365=T -9.4653=T -7.4006=T -10.718=T -0.9678=T -2.7365=T -1.518=T 10.46474=T 2.07624=T 3.3361780922=T 5.4976508274=T 0.427101017=T pbc="F F F"
C        1.01032822       0.10224768      -0.05905056
C        2.52525013       0.07943566      -0.02719464
O        3.14649182      -0.97968325      -0.04728860
C        3.26975740       1.38188696       0.03417597
C        2.66981404       2.58678258       0.09018898
C        4.77308288       1.31524515       0.03881099
O        5.48661870       2.30509495       0.07833171
H        0.64095285       0.69218165      -0.91010667
H        0.61010590       0.55998426       0.85770328
H        0.64401880      -0.92627559      -0.13946575
H        1.58671826       2.70589993       0.09106355
H        3.28878945       3.48606720       0.13815995
H        5.19417153       0.28764281       0.00170180
