13
Properties=species:S:1:pos:R:3 -1373.017802438967=T 10.149501=T 11.23627=T -9.6741=T -7.489=T -9.949=T 1.0285=T -0.3274=T 1.997=T 9.57505=T -1.63459=T 4.3767058=T 11.2267215238=T 0.277394826=T pbc="F F F"
O        0.87496306       0.07749810       0.15093560
C        2.27656991      -0.02560276       0.03073753
C        3.06227530       0.98172331       0.87504421
O        3.94520756      -0.06911214       1.37370007
C        3.02318661      -1.10272851       0.88666842
C        3.66506688      -2.21173246       0.21487321
C        4.16741125      -3.13995106      -0.38600258
H        0.46181007      -0.46221971      -0.54484620
H        2.60602265      -0.05656640      -1.01942129
H        2.44379180       1.41548284       1.67977292
H        3.61939808       1.77110012       0.35129055
H        2.37192994      -1.46144358       1.70588384
H        4.62477688      -3.95880775      -0.90303627
