18
Properties=species:S:1:pos:R:3 -1724.2964046609402=T 11.479453=T 12.89445=T -9.0878=T -6.9711=T -10.594=T 1.0043=T 0.1086=T 3.384=T 9.88598=T -3.3038=T 8.7232954006=T 12.282425118=T 0.127180776=T pbc="F F F"
C        2.98853867      -0.91412617      -0.58454995
O        3.14926086       0.43954971      -0.97979879
C        3.86540619       1.19291700      -0.00730154
C        3.97576855       2.62897605      -0.50516338
N        4.69685680       3.44272562       0.47349688
C        6.15149591       3.51712178       0.27819901
C        5.27781844       4.68089632      -0.05277969
H        2.43296901      -1.42128846      -1.38366504
H        2.41896681      -0.99686355       0.36072375
H        3.96544762      -1.41668086      -0.44877595
H        4.87599298       0.76186729       0.14716908
H        3.34243099       1.17413131       0.96889647
H        2.96422749       3.04749447      -0.62663889
H        4.46193072       2.63238517      -1.50386259
H        6.58006758       2.96500273      -0.56571372
H        6.75266722       3.51882892       1.18993284
H        5.23112684       5.54469113       0.61408528
H        5.13010733       4.90191153      -1.11540377
