14
Properties=species:S:1:pos:R:3 -1474.8640095431222=T 10.196297=T 10.90135=T -8.2114=T -6.1497=T -8.77=T 0.951=T 0.0087=T 1.183=T 8.40273=T -0.63289=T 5.6342090078=T 11.9995634576=T 0.250092348=T pbc="F F F"
N        1.10329990       0.05742961       0.72525815
C        2.42063483      -0.03124154       0.14661544
C        2.56813966       0.70221719      -1.15964529
O        3.87500241       1.11886709      -1.56281040
C        4.60791126      -0.03763084      -1.73935389
C        3.90890054      -1.17552829      -1.57419374
C        2.52528619      -0.82451929      -1.16103247
H        1.01213898       0.90319548       1.29325545
H        0.92041356      -0.74294173       1.33454437
H        3.31280566      -0.07074879       0.78688621
H        1.77283711       1.35485877      -1.51762799
H        5.65106480       0.12565335      -2.00009209
H        4.29459555      -2.18112618      -1.71599827
H        1.65326954      -1.38787482      -1.49598547
