13
Properties=species:S:1:pos:R:3 -1431.6298114547258=T 11.641096=T 11.4506=T -8.4116=T -6.5821=T -8.619=T 0.9711=T -0.628=T 0.021=T 8.11433=T 0.5606=T 4.7171837546=T 0.320026921=T pbc="F F F"
C        2.71602328      -1.22050124       0.33345747
C        2.27057844       0.03144259       0.13661613
C        3.09568758       1.22906690       0.06361900
N        2.49924188       2.42429126      -0.14050186
N        3.51735511       3.30920401      -0.15683140
C        4.74032972       2.73222343       0.02803350
C        4.50788379       1.37894986       0.17536295
H        2.02575050      -2.06235854       0.37455820
H        3.77696581      -1.44547227       0.45924269
H        1.19989809       0.21687661       0.01474607
H        3.31087684       4.29236213      -0.29857716
H        5.65471823       3.31699893       0.03937865
H        5.25268073       0.60794635       0.34010577
