14
Properties=species:S:1:pos:R:3 -1450.3411975999916=T 9.434351=T 10.00265=T -8.2811=T -6.108=T -8.918=T 0.9798=T 0.0622=T 1.293=T 8.5179=T -0.75081=T 5.8810403366=T 11.8832645896=T 0.294610385=T pbc="F F F"
C        0.97596254      -0.00033673       0.07073133
C        2.48430432      -0.01296400      -0.11397617
C        3.01993020      -1.26520851      -0.86085634
C        3.47136990      -0.68291043      -2.17876741
C        3.35509793       0.65010074      -2.11961672
O        2.86080946       1.15194444      -0.94350255
H        0.64305253       0.95030538       0.50857403
H        0.67109642      -0.81776968       0.74076108
H        0.47147472      -0.13694903      -0.89704329
H        2.99149132       0.13661658       0.85090385
H        2.22723738      -2.02347950      -0.97634672
H        3.84933555      -1.74737293      -0.31655032
H        3.84707479      -1.24989123      -3.02557017
H        3.59851295       1.40684491      -2.86374059
