13
Properties=species:S:1:pos:R:3 -1419.1617612398347=T 9.209062=T 10.02688=T -9.2753=T -7.1971=T -10.665=T 0.8515=T -0.9256=T 0.126=T 9.70296=T 0.58744=T 3.7979019562=T 11.7072664626=T 0.156371135=T pbc="F F F"
O        1.42155241       0.21314931       0.84382272
C        2.47081925       0.04384951       0.24886782
C        3.02519453      -1.31754310      -0.20089592
O        4.39767536      -1.13178744      -0.56568145
C        4.66514330       0.26211634      -0.64253965
C        3.87797777       1.06348067      -1.61953320
C        3.48808500       1.06573848      -0.12828891
H        2.43033551      -1.70558565      -1.04712617
H        2.96285889      -2.04191455       0.62465681
H        5.70129623       0.50080939      -0.40422648
H        4.30862081       1.99521744      -1.98555670
H        3.22699014       0.54394427      -2.32399172
H        3.55572080       1.98496534       0.45044285
