15
Properties=species:S:1:pos:R:3 -1541.0939482924452=T 10.896962=T 11.25291=T -9.1295=T -7.1667=T -9.572=T 0.3376=T -1.3735=T 0.208=T 9.23058=T 0.40673=T 4.373358178=T 8.703259263=T 0.265964872=T pbc="F F F"
C        0.97140079      -0.05306444       0.41772305
C        2.42982360       0.03192778      -0.03268876
C        2.74640951       1.27554455      -0.87717402
C        4.16237975       1.12881691      -1.36605627
N        4.69710136      -0.00818644      -1.65727080
N        3.83235998      -1.12991082      -1.70750854
C        2.83442415      -1.14269350      -0.89209187
H        0.70242666       0.80720694       1.04654968
H        0.79148862      -0.96699952       1.00234965
H        0.29136876      -0.06560406      -0.44724473
H        3.08380976       0.04708312       0.86179486
H        2.63934064       2.20152273      -0.29537554
H        2.04479873       1.34344136      -1.73073178
H        4.82745024       1.99831743      -1.41781581
H        2.21660745      -2.05001204      -0.90207912
