17
Properties=species:S:1:pos:R:3 -1651.524749650807=T 11.391195=T 12.69969=T -8.9583=T -6.9102=T -10.527=T 0.9694=T 0.0328=T 2.975=T 9.82341=T -2.56956=T 8.4317423216=T 11.4948412488=T 0.214311376=T pbc="F F F"
C        1.24909153      -0.10526455       0.05938946
N        2.69514050      -0.13378370      -0.14389003
C        3.13940369      -0.60201012      -1.46117268
C        3.22411666       0.84523091      -1.10274152
C        4.49393846       1.55385975      -0.73901296
C        5.84827421       0.96747957      -0.91626697
N        5.35008101       1.98256215      -1.87073626
H        1.00624878       0.63152292       0.83903162
H        0.91369693      -1.09384288       0.40564592
H        0.68120153       0.15465860      -0.85761060
H        2.37205535      -0.88271483      -2.19136182
H        4.03346220      -1.22917068      -1.46260757
H        2.48215475       1.48814924      -1.59678432
H        4.38400010       2.25314106       0.09818116
H        5.95737625      -0.03311044      -1.33950043
H        6.61967246       1.24781714      -0.19457220
H        5.77046559       2.89235587      -1.65691079
