15
Properties=species:S:1:pos:R:3 -1571.4254743254546=T 10.670237=T 11.73392=T -9.9037=T -7.6767=T -9.828=T 0.6608=T -0.4369=T 0.019=T 10.38949=T 0.60655=T 4.3153203314=T 6.665921311=T 0.485597514=T pbc="F F F"
O        0.92683847       0.07225877      -0.07044729
C        2.29826173      -0.02790201      -0.07593845
O        2.81869201      -1.11476988      -0.17680466
C        3.04152941       1.29634067       0.03594938
C        4.55757329       1.12379804       0.19693289
C        5.28155496       2.43819794       0.18427742
C        6.02777735       2.91421451       1.18728847
H        0.67208271       1.01001587       0.02571476
H        2.63150067       1.87305502       0.88231886
H        2.81629580       1.88346881      -0.87210157
H        4.91757257       0.48336373      -0.62481751
H        4.76854413       0.57984139       1.12954298
H        5.17667556       3.03764446      -0.72871133
H        6.16223729       2.34956668       2.11367222
H        6.53564404       3.87682600       1.11467383
