17
Properties=species:S:1:pos:R:3 -1809.2309367774533=T 12.552942=T 13.25131=T -8.1591=T -6.1518=T -8.124=T 1.0324=T -0.4654=T 0.715=T 7.5593=T -0.15813=T 4.5949955516=T 6.8917246142=T 0.602047458=T pbc="F F F"
C        1.97572665      -0.40170347       1.40678436
C        2.51516882       0.01124744       0.02710494
C        3.07744206       1.40415368       0.00736914
C        4.37952999       1.77522538      -0.11824323
C        4.48666670       3.27151428      -0.06596360
C        3.06274492       3.71806456       0.10593483
C        2.26401119       2.62455127       0.14907757
H        1.57105767      -1.42376254       1.38190992
H        1.17184142       0.27069032       1.74057211
H        2.77355055      -0.36606581       2.16259169
H        1.70041165      -0.06144019      -0.71466041
H        3.29316046      -0.69869744      -0.29396243
H        5.23018066       1.10562486      -0.24180432
H        4.94039129       3.68984720      -0.98348283
H        5.12921924       3.61606688       0.76530013
H        2.75096561       4.75881152       0.17635618
H        1.17855113       2.62819204       0.26108597
