17
Properties=species:S:1:pos:R:3 -1603.9779647407115=T 11.134815=T 11.81582=T -8.8857=T -6.9344=T -10.011=T 0.7085=T -0.4041=T 0.799=T 9.30524=T -0.26878=T 4.9138999422=T 8.894693647=T 0.213893227=T pbc="F F F"
C        0.96575194      -0.07304049      -0.01038795
C        2.48684908       0.00893713      -0.17879683
C        3.01188698      -0.95823198      -1.23891507
N        2.95670321       1.38578386      -0.46550752
O        2.33237104       1.91322060      -1.64443112
C        2.94948748       2.31198255       0.58802513
N        2.71244212       3.56845703       0.56210031
H        0.61723041       0.60376643       0.78201967
H        0.66702638      -1.09687502       0.25442466
H        0.45993318       0.20196520      -0.94590711
H        2.97030392      -0.23160686       0.78343561
H        2.55818558      -0.74670179      -2.21780510
H        2.75636595      -1.99210014      -0.96876590
H        4.10419156      -0.88413443      -1.33153548
H        3.07385075       1.97447114      -2.27513580
H        3.26546395       1.83330090       1.52660374
H        2.41056647       3.83831588      -0.38678126
