12
Properties=species:S:1:pos:R:3 -1285.2653089367698=T 9.207232=T 9.8089=T -9.6384=T -7.6713=T -9.49=T 1.0165=T -0.7212=T -0.237=T 8.90436=T 0.75802=T 4.8660289476=T 6.8254293=T 0.344383035=T pbc="F F F"
O        2.53791608      -0.61993300      -1.28226596
C        2.27390216      -0.01950305      -0.00289413
C        2.82711769       1.36725334      -0.00182036
C        2.16485044       2.55575716       0.12846161
O        3.02547185       3.59516196       0.09373808
N        4.33442990       3.08790695      -0.08087353
C        4.18778279       1.78050920      -0.13260649
H        2.27890091      -1.55609975      -1.22708225
H        2.74813003      -0.60747486       0.80443409
H        1.18952639       0.01810965       0.20576240
H        1.11612750       2.81054895       0.25306537
H        5.07053426       1.16058346      -0.27393884
