16
Properties=species:S:1:pos:R:3 -1543.001596046253=T 10.579236=T 11.35666=T -9.4486=T -7.3762=T -10.429=T 0.8762=T -0.2459=T 0.531=T 9.83201=T 0.14964=T 5.5398928576=T 6.4528389714=T 0.190362439=T pbc="F F F"
C        0.99928541      -0.16695010      -0.19916124
C        2.48367230       0.07460974       0.07452835
O        3.31941571      -0.75310001      -0.75695495
C        2.86772269       1.53784075      -0.05704168
C        2.83008128       2.22744463      -1.38928193
N        3.22617446       2.10342168       1.04313533
O        3.56302759       3.47175007       0.83543642
H        0.37610579       0.40540001       0.50224818
H        0.77066414      -1.23514656      -0.08338211
H        0.72238325       0.13637439      -1.22156200
H        2.72188857      -0.22645897       1.10484126
H        3.00975812      -0.66294176      -1.67642660
H        2.41203531       1.58443124      -2.17421817
H        3.84373902       2.53096387      -1.68918115
H        2.23197944       3.14791211      -1.32869310
H        3.81102692       3.74463892       1.73625336
