15
Properties=species:S:1:pos:R:3 -1607.4485141214866=T 12.043942=T 12.39634=T -9.2706=T -7.4402=T -9.909=T -0.5407=T -2.1749=T -0.982=T 9.20673=T 1.70932=T 3.2686553166=T 5.0485363396=T 0.436681733=T pbc="F F F"
C        0.79100629      -0.11159895      -0.31613416
C        2.12839038      -0.59863950       0.16424962
C        2.29295726      -1.80545320       0.74150095
C        3.25970005       0.37698275       0.00773144
O        3.01480437       1.53585822      -0.33661062
C        4.66396102      -0.06838640       0.26485977
C        5.67860693       0.80696716       0.22428836
H        0.52752809       0.83365436       0.17802281
H        0.00682059      -0.85413054      -0.12564786
H        0.82349702       0.10862503      -1.39322395
H        1.44432993      -2.47857755       0.87816081
H        3.25401398      -2.15822527       1.11205293
H        4.85825869      -1.12181122       0.46858708
H        5.48009956       1.85932078       0.01083462
H        6.70904587       0.49730432       0.39833820
