15
Properties=species:S:1:pos:R:3 -1510.5981748351555=T 13.167894=T 12.87922=T -8.6231=T -6.7284=T -9.193=T 0.2721=T -1.357=T -0.207=T 8.67622=T 0.72006=T 4.536213789=T 5.3392215166=T 0.838447034=T pbc="F F F"
C        1.83346602      -0.10165998       1.63514669
C        2.73790142      -0.18633949       0.64317888
C        3.18720114       0.96783008      -0.11389268
N        4.05730323       0.82951159      -1.05586520
N        4.36252170       2.09493111      -1.67624738
C        4.69615899       1.85647551      -3.11127459
C        5.78297759       2.07337432      -2.13403801
H        1.51160012      -0.98298215       2.18968881
H        1.39066006       0.85579596       1.91908803
H        3.17835715      -1.14694205       0.36284217
H        2.77390933       1.95982320       0.12910950
H        4.37142529       2.65972017      -3.77396388
H        4.54206825       0.83741839      -3.46974852
H        6.36442894       1.20109850      -1.83107631
H        6.28091077       3.04079485      -2.05684749
