16
Properties=species:S:1:pos:R:3 -1635.977291601706=T 12.926796=T 13.53879=T -8.7162=T -6.5973=T -8.815=T 0.5693=T -1.0564=T 0.562=T 8.3168=T -0.01478=T 4.054652165=T 6.0766406502=T 0.454837346=T pbc="F F F"
C        1.46486974      -0.20486292      -0.32194184
N        2.80373098      -0.17117123       0.26062235
C        3.50928774       1.07285210      -0.05033068
C        4.96059154       1.02297465       0.38889368
C        5.48507323       1.90604458       1.26168044
C        5.75133844      -0.01274630      -0.19217673
C        6.36276963      -0.92402830      -0.71979731
H        1.00738291      -1.18461052      -0.12910851
H        1.43989309      -0.01469107      -1.41666914
H        0.83354185       0.55721340       0.16159639
H        3.35418172      -0.95474215      -0.10208554
H        3.00767929       1.90297953       0.47270983
H        3.48615614       1.31245720      -1.13880172
H        4.86332936       2.68449683       1.70532135
H        6.53681399       1.86916996       1.54469914
H        6.92838035      -1.71311575      -1.17150171
