13
Properties=species:S:1:pos:R:3 -1386.0534175780474=T 9.993791=T 10.20543=T -9.1672=T -7.2124=T -9.819=T 0.7524=T -1.0454=T -0.292=T 10.16101=T 0.8134=T 4.209138721=T 5.2906562004=T 0.300998908=T pbc="F F F"
O        1.13323681       0.02852744      -0.68400944
C        2.26600647       0.07658192      -0.22492020
N        2.95376573       1.24153695       0.04827909
C        4.32175232       1.34501028       0.59833502
C        4.50047226       2.89122254       0.67158131
N        3.25842368       3.50077674       0.15831266
C        2.46924080       2.54320109      -0.15765294
H        2.86666607      -0.82749305       0.02225115
H        5.04564013       0.86609946      -0.07548365
H        4.37951700       0.86342695       1.58412714
H        5.34914051       3.23973820       0.06508307
H        4.67176164       3.24034817       1.70049229
H        1.46650658       2.66244331      -0.56733550
