12
Properties=species:S:1:pos:R:3 -1357.0074787406825=T 10.201681=T 10.83924=T -10.2542=T -8.1726=T -10.635=T -0.6006=T -2.4515=T -1.276=T 10.16249=T 1.84924=T 3.4150827826=T 5.4015864746=T 0.443086471=T pbc="F F F"
C        1.40632831       0.31483463      -0.84648673
C        2.43216476       0.44476702       0.01220474
C        3.82420146      -0.11638566      -0.18945430
C        3.98827306      -0.84435796      -1.43969817
N        4.09719649      -1.42465570      -2.44515883
C        2.22252021       1.19136206       1.27350307
O        3.09122664       1.36667934       2.11470777
H        0.43721808       0.75809388      -0.60845406
H        1.49931397      -0.22536091      -1.78986347
H        4.07823133      -0.77761257       0.65497976
H        4.55941026       0.70347101      -0.14346994
H        1.18770545       1.59361486       1.40731016
