17
Properties=species:S:1:pos:R:3 -1718.3304970755303=T 11.713135=T 12.97039=T -9.9876=T -7.6951=T -9.885=T 0.9364=T -0.0594=T 2.186=T 9.44233=T -1.76308=T 4.323825771=T 10.3273766742=T 0.34465347=T pbc="F F F"
C        2.81337650      -0.88681299      -1.14154663
C        2.44538020      -0.02254216       0.06375083
C        2.99504479       1.41926905      -0.01439787
C        2.48507416       2.27705036       1.16853886
O        2.92969730       3.62620949       1.11754075
C        4.45660862       1.45966374      -0.04323302
C        5.66893071       1.54224699      -0.01009786
H        2.39716741      -1.89880993      -1.03996100
H        3.90407096      -0.97786457      -1.24441985
H        2.42238434      -0.45543636      -2.07549668
H        2.81554371      -0.49097225       0.99016107
H        1.34876713       0.04312235       0.15700481
H        2.62659990       1.89018152      -0.94444249
H        2.78192974       1.78841697       2.11640518
H        1.38617192       2.31556026       1.13266477
H        3.90505359       3.60010941       1.07229561
H        6.73894903       1.59059811      -0.00674649
