16
Properties=species:S:1:pos:R:3 -1639.6596466808091=T 10.848682=T 11.84574=T -8.9997=T -7.082=T -10.026=T 0.7559=T -0.172=T 0.716=T 9.57519=T 0.00569000000002=T 4.4802589072=T 5.9520347202=T 0.147025026=T pbc="F F F"
C        0.93965492       0.03907221       0.10050911
C        2.45917589      -0.00617211       0.05832581
C        3.23675082       1.10812024       0.81996857
C        3.83411689      -0.03642579       1.66971043
O        4.64081246      -0.13707900       2.57717662
N        3.09199846      -0.97464553       0.98098711
C        3.07426149      -2.41693034       1.03823766
H        0.50018450      -0.89686776      -0.27476225
H        0.56543311       0.85693346      -0.53195786
H        0.58159337       0.20155726       1.12784426
H        2.81561486      -0.14193041      -0.97891979
H        2.60802030       1.80734072       1.38663718
H        3.97802817       1.66204666       0.23084040
H        2.05721881      -2.80065864       1.21373581
H        3.71538500      -2.72293133       1.87516581
H        3.46718094      -2.86245962       0.10926113
