17
Properties=species:S:1:pos:R:3 -1716.1887687000726=T 10.477026=T 11.69443=T -10.0536=T -7.9704=T -11.308=T 0.6543=T -0.4282=T 0.153=T 10.26695=T 0.47028=T 4.3485237822=T 7.740755945=T 0.122645366=T pbc="F F F"
C        4.04291254      -1.06030478       0.00921466
C        3.20021406      -0.05623671       0.79652730
C        3.30197891       1.38460247       0.27158193
C        2.32428725       2.32716253       0.99827001
C        4.72306382       1.92568166       0.45983385
O        5.24226881       2.64522480      -0.58966410
O        5.37618485       1.78770162       1.47002966
H        3.92124534      -2.07554451       0.41149678
H        5.11319155      -0.81244926       0.06081959
H        3.74938933      -1.08709968      -1.05188138
H        3.50790437      -0.05387923       1.85409159
H        2.13900819      -0.35242942       0.76967525
H        3.05304094       1.38007855      -0.80676877
H        2.54888648       2.34722908       2.07383851
H        1.29190268       1.97492067       0.86517528
H        2.38620876       3.35657253       0.61805331
H        4.59939213       2.63702967      -1.32423347
