19
Properties=species:S:1:pos:R:3 -1874.361933143499=T 12.922146=T 14.11836=T -7.9454=T -5.8998=T -8.571=T 0.9187=T 0.0439=T 1.467=T 8.06872=T -0.84081=T 5.8569870526=T 0.35782897=T pbc="F F F"
C        1.41851174       0.11626392      -0.46618867
C        2.92753128       0.21548143      -0.36901901
O        3.28829524       1.60584699      -0.31052110
C        4.64163020       1.83704434      -0.22637268
C        5.16869139       3.07183704      -0.14325805
C        4.32407312       4.31459461      -0.13180702
C        6.65889876       3.25151220      -0.05914398
H        1.11543230      -0.93906279      -0.51165391
H        1.05120150       0.62144833      -1.36977719
H        0.93975784       0.57663712       0.40872317
H        3.40897638      -0.25291826      -1.24758254
H        3.29705649      -0.29930237       0.53730582
H        5.27518958       0.94307852      -0.23349232
H        3.25411987       4.08149123      -0.18444930
H        4.57856509       4.96988282      -0.98228726
H        4.50691553       4.90441422       0.78249022
H        7.19160177       2.29030007      -0.07378463
H        6.94509988       3.78329752       0.86468647
H        7.03558203       3.85989308      -0.89951803
