20
Properties=species:S:1:pos:R:3 -1935.2768731704998=T 13.342874=T 14.85613=T -8.643=T -6.5942=T -9.599=T 1.3003=T 0.0563=T 1.348=T 9.0864=T -0.78867=T 6.726922423=T 0.439935264=T pbc="F F F"
C       -0.09949802      -0.27064006       0.86976953
C        1.41263227      -0.49829972       0.84782507
C        2.20213964       0.79188971       0.63569273
N        3.64540649       0.54687500       0.65100810
C        4.43386767       1.75315459       0.38140165
C        5.90362203       1.45171584       0.40654577
C        6.75098660       1.72698857      -0.59116621
H       -0.64284359      -1.21416841       1.01939179
H       -0.45305127       0.17117654      -0.07445655
H       -0.38790112       0.41171032       1.68404049
H        1.66576335      -1.21155039       0.04330467
H        1.74485013      -0.96277011       1.78989453
H        1.97329022       1.50086990       1.45177009
H        1.86153993       1.28192309      -0.30567992
H        3.87307284      -0.15458803      -0.06061328
H        4.20028719       2.47891652       1.18282278
H        4.16922849       2.24905457      -0.57913720
H        6.26799262       0.96342098       1.31684178
H        6.40665662       2.20314648      -1.51332012
H        7.81473792       1.49556461      -0.51892570
