13
Properties=species:S:1:pos:R:3 -1354.3472472256624=T 10.183181=T 10.63821=T -8.5936=T -6.5737=T -8.369=T 0.6583=T -0.4883=T 0.602=T 7.88187=T 0.06292=T 4.6280130234=T 6.4794959614=T 0.299379082=T pbc="F F F"
C        0.94844477      -0.04576224       0.01565691
C        2.43882934       0.06023997      -0.01556733
C        3.21746734       1.19622196      -0.12901513
N        4.51818674       0.72796913      -0.09564986
O        5.66077407       1.50952594      -0.28356553
C        4.49352538      -0.63382693       0.00735133
N        3.24322733      -1.06443958       0.06841989
H        0.47725072       0.94203034      -0.06720030
H        0.60947036      -0.51386739       0.95144620
H        0.58645271      -0.67276261      -0.81235808
H        2.99713161       2.25199653      -0.23607147
H        5.90943526       1.80760636       0.61561221
H        5.40199437      -1.22820148       0.02973115
