8
Properties=species:S:1:pos:R:3 -876.2551650536469=T 8.810012=T 8.59819=T -9.3688=T -7.3406=T -8.881=T 0.7273=T -0.9879=T -0.178=T 8.45039=T 0.78536=T 4.4038711326=T 12.4449955612=T 0.667949669=T pbc="F F F"
S       -0.50354853      -1.40803983      -0.00179218
C       -1.30273674       0.12610027      -0.00118004
C       -0.37088776       1.13460459      -0.00093957
N        0.94624392       0.73862559      -0.00124532
C        1.03007275      -0.56729849      -0.00166357
H       -2.38620001       0.19475597      -0.00103883
H       -0.60875636       2.19755780      -0.00057032
H        1.96424274      -1.12603592      -0.00196017
