17
Properties=species:S:1:pos:R:3 -1695.7730942229716=T 11.309791=T 11.90433=T -8.3952=T -6.3995=T -9.258=T 0.7506=T -0.2322=T 1.025=T 8.59243=T -0.41146=T 4.5317626916=T 5.7901957944=T 0.150433491=T pbc="F F F"
C        1.74742809      -0.13045181       0.02234714
C        0.82459793      -1.25893449       0.51943939
C       -0.45782254      -1.46007896      -0.30378972
N       -1.55455929      -0.52433812      -0.02532793
C       -1.34805482       0.70930968       0.25621434
N       -0.16911105       1.44826777       0.29971449
C        0.97899384       1.07021566      -0.53623716
H        2.40977606      -0.50504287      -0.77561525
H        2.40004898       0.19630016       0.84752180
H        1.39066701      -2.20413243       0.54407649
H        0.52171122      -1.05606142       1.55914950
H       -0.85552059      -2.46407150      -0.08457271
H       -0.23453383      -1.46767750      -1.38672319
H       -2.22450689       1.30977067       0.54347644
H       -0.32510149       2.44899127       0.38504747
H        1.64270572       1.94400955      -0.60345814
H        0.63318164       0.85419433      -1.56283295
