13
Properties=species:S:1:pos:R:3 -1420.8116132566204=T 10.332061=T 10.74707=T -9.7147=T -7.5602=T -10.445=T -0.5473=T -2.358=T -1.344=T 10.20984=T 1.91404=T 3.4265514876=T 5.289056781=T 0.431612093=T pbc="F F F"
C        0.96754921       0.05916054      -0.10800737
C        2.30658258       0.10286463       0.03745316
C        3.20544185      -1.10572130      -0.02669926
C        3.79828507      -1.28534808      -1.41887038
O        3.69225270      -2.30555167      -2.06997075
C        2.93895692       1.42705032       0.24594007
O        4.14259164       1.59944976       0.37231667
H        0.37620161       0.97669461      -0.06177241
H        0.42923553      -0.87564866      -0.27006007
H        2.67503602      -2.02547848       0.24863372
H        4.05574668      -0.94318840       0.65811710
H        4.35302116      -0.39883992      -1.81241801
H        2.22221903       2.28547663       0.28406755
