14
Properties=species:S:1:pos:R:3 -1387.7728003036586=T 9.585413=T 9.99345=T -9.2719=T -7.2542=T -10.532=T 1.2294=T -0.533=T 0.324=T 10.0617=T 0.27648=T 5.0232679928=T 6.4604641104=T 0.199538017=T pbc="F F F"
C        1.67422245      -0.11572088      -0.05260047
C        0.72545740      -1.14736601       0.53275074
O       -0.40573821      -1.44330261      -0.31191281
N       -1.51755272      -0.58604239      -0.16056588
C       -1.31867112       0.63946007       0.17774522
C       -0.05948145       1.47588757       0.33811788
O        1.01735015       1.07528911      -0.49130210
H        2.17617226      -0.51463131      -0.94539188
H        2.44804882       0.11967268       0.70684917
H        1.25498815      -2.10560952       0.65114197
H        0.34859431      -0.84808461       1.52530903
H       -2.26408252       1.18282762       0.29280176
H        0.23518810       1.54611146       1.40544276
H       -0.31163560       2.49827881       0.01769461
