14
Properties=species:S:1:pos:R:3 -1448.2670899333837=T 10.042719=T 10.61604=T -9.6782=T -7.5797=T -10.075=T 0.8402=T -0.8536=T -0.053=T 9.58339=T 0.61219=T 4.260530918=T 6.1896538892=T 0.252964229=T pbc="F F F"
N        1.41951873       0.45267371       0.62602278
C        2.47873181      -0.03866291      -0.28782055
C        2.15975836       0.35592105      -1.70459396
C        2.18642336      -0.48299453      -2.74412352
C        3.82658960       0.62245816       0.12636928
O        3.65519829       1.72300921       0.88982015
O        4.90752761       0.20083884      -0.22102964
H        1.33984872      -0.15501302       1.44463636
H        0.51062360       0.44944458       0.15859404
H        2.63482155      -1.12837468      -0.23903266
H        1.91703982       1.41394475      -1.85523479
H        2.44341711      -1.53728668      -2.62216736
H        1.96756473      -0.13666301      -3.75466644
H        2.66443672       1.74603452       1.04186629
