18
Properties=species:S:1:pos:R:3 -1749.2215647745745=T 11.686602=T 12.46688=T -9.1789=T -7.0305=T -9.577=T 1.0365=T -0.2187=T 1.266=T 9.05224=T -0.69608=T 6.6479185438=T 0.45157049=T pbc="F F F"
C        3.15061802      -1.06789105      -0.98589864
C        2.63345373      -0.12708089       0.10122826
O        2.79705204      -0.68936140       1.41387641
C        3.22473292       1.31736870       0.05792927
N        2.58723394       2.21097264       1.03173960
C        4.72512669       1.27993311       0.23760963
C        5.40160985       1.88955598       1.21821846
H        2.99540572      -0.63914657      -1.98790168
H        2.61481462      -2.02508378      -0.93362231
H        4.22357816      -1.27787681      -0.86669916
H        1.54079692      -0.02400260      -0.01212956
H        3.75560621      -0.68635930       1.60514399
H        3.01914552       1.71749248      -0.95246845
H        2.48550617       1.69495737       1.91282305
H        1.63569857       2.41954110       0.72159327
H        5.27504697       0.68805237      -0.50103662
H        4.88480382       2.51593447       1.94717298
H        6.48680014       1.80536417       1.29132152
