17
Properties=species:S:1:pos:R:3 -1708.191280577014=T 11.377116=T 12.31343=T -8.3439=T -6.3654=T -9.175=T 0.7844=T -0.1507=T 1.093=T 8.52837=T -0.41999=T 5.2101768878=T 7.9206224352=T 0.147571511=T pbc="F F F"
C        0.98931047      -0.02756994      -0.02056615
C        2.51756463       0.03397460      -0.04174630
C        3.17033376      -1.16474601      -0.79110893
N        3.48437142      -0.68766741      -2.14938563
C        3.37259516       0.59796641      -2.10956318
C        3.64694968       1.50055644      -3.26987562
N        3.03016308       1.14926071      -0.86724941
H        0.55480548       0.88865277       0.40763307
H        0.64868466      -0.87452439       0.59351847
H        0.59263832      -0.16052253      -1.03838123
H        2.90243850       0.12372748       0.98596947
H        2.50648299      -2.04267793      -0.82938055
H        4.10617404      -1.48015755      -0.29845262
H        4.46202401       2.19951169      -3.03134164
H        2.76007355       2.10082654      -3.52619763
H        3.93173016       0.89728342      -4.13803461
H        2.48429008       2.01065568      -0.87472751
