15
Properties=species:S:1:pos:R:3 -1512.9269028359042=T 11.351405=T 13.11953=T -9.7863=T -7.5528=T -9.609=T 0.9138=T -0.1468=T 2.138=T 9.17542=T -1.73084=T 4.222033265=T 9.9071137286=T 0.633180402=T pbc="F F F"
C        0.99792079       0.01775760      -0.34729511
O        2.41560129       0.10601476      -0.41571180
C        2.89196195       1.23141836       0.32669161
C        4.34010546       1.32391145       0.24365346
C        5.55042957       1.43734596       0.20466473
C        6.99942288       1.55369534       0.08988742
O        7.43296142       2.41028017      -0.97764184
H        0.70659444      -0.86400589      -0.93060410
H        0.51252216       0.91383528      -0.77935100
H        0.64605097      -0.10471550       0.69494091
H        2.58699332       1.14457858       1.39051553
H        2.43762129       2.16656033      -0.06221968
H        7.43296370       0.54058565      -0.01188073
H        7.41751979       1.99151747       1.00963897
H        6.93631098       2.14931043      -1.77414836
