15
Properties=species:S:1:pos:R:3 -1525.6992940920675=T 9.962043=T 11.06737=T -11.4866=T -9.1034=T -11.802=T 0.7493=T -0.2607=T 1.47=T 11.31959=T -1.09272=T 5.3746567154=T 12.7345152698=T 0.154673476=T pbc="F F F"
C        0.88043055       0.13108165       0.32243815
C        2.37892926       0.00979276       0.03040107
C        2.64104084      -0.71970272      -1.29000157
C        3.02125257       1.41963797       0.03645353
C        4.47291842       1.39736240      -0.11504999
N        5.63297950       1.35711496      -0.23296653
H        0.69127007       0.62463379       1.28709383
H        0.41101981      -0.86218205       0.35526949
H        0.37160716       0.71331375      -0.46240687
H        2.85008625      -0.56455741       0.84635645
H        2.17506145      -0.18425866      -2.13278330
H        2.21615177      -1.73311816      -1.26253475
H        3.71670320      -0.80893918      -1.49662620
H        2.78455174       1.94085700       0.97791906
H        2.59783741       2.02839390      -0.78064238
