13
Properties=species:S:1:pos:R:3 -1396.3971485153552=T 10.205098=T 10.36537=T -8.9304=T -6.9539=T -9.266=T 0.2401=T -1.4158=T 0.117=T 8.93477=T 0.50457=T 4.218561657=T 9.2232689456=T 0.199567183=T pbc="F F F"
C       -1.47203193       0.76506608       0.54416950
C       -1.15902897      -0.45514541      -0.28135127
C       -0.18104990      -1.41573230       0.23976082
N        1.03477569      -1.17244719       0.61691542
N        1.61614673       0.09105656       0.31436471
C        0.91687683       0.97056069      -0.33150062
C       -0.52185395       0.92980380      -0.61271588
H       -2.46580269       1.19186130       0.41661494
H       -1.05811962       0.81558803       1.55121880
H       -1.95162385      -0.84074777      -0.92500209
H       -0.49024072      -2.46501081       0.32330133
H        1.48619755       1.83074016      -0.70506426
H       -0.88212518       1.48402687      -1.48118141
