16
Properties=species:S:1:pos:R:3 -1594.5214615709835=T 10.228943=T 11.41089=T -9.4011=T -7.4172=T -10.666=T 0.8819=T -0.0652=T 0.455=T 10.21881=T 0.12577=T 4.9105399216=T 6.302766317=T 0.135940216=T pbc="F F F"
C        1.92380293      -0.55469678      -1.30587640
C        2.50024200      -0.06503660       0.02360316
N        3.18227916       1.21958979      -0.07074501
C        4.51819405       1.30018093      -0.35231877
O        5.30341261       0.36292913      -0.38776641
O        4.86582235       2.61473663      -0.56748153
C        6.26693483       2.80961991      -0.84128015
H        1.42336756      -1.52476637      -1.17171162
H        2.72289724      -0.68094152      -2.04907648
H        1.18453687       0.15411751      -1.70729958
H        3.23896132      -0.78252283       0.40547787
H        1.70601722       0.02667655       0.78036083
H        2.63635439       2.06510928      -0.20726693
H        6.39138090       3.89164812      -0.95588114
H        6.55953928       2.28981635      -1.76385531
H        6.88242730       2.43697990      -0.01183253
