18
Properties=species:S:1:pos:R:3 -1739.6180937748568=T 11.338834=T 12.58465=T -9.3845=T -7.273=T -10.693=T 0.903=T 0.0124=T 3.135=T 9.9692=T -3.16524=T 8.712186255=T 10.7502185286=T 0.158415858=T pbc="F F F"
C        0.46925692      -0.29389897      -0.43307052
C        1.94947855      -0.30250431      -0.77878912
O        2.21548726       0.80007028      -1.65223138
C        2.84226926      -0.19971619       0.46142410
N        4.23817765      -0.06679347       0.03108326
C        5.25905315      -0.30034554       1.05524998
C        5.02044275      -1.31032279      -0.01789673
H        0.20771660      -1.15890181       0.19340820
H       -0.13128393      -0.33844933      -1.35136553
H        0.20498763       0.62852939       0.10464155
H        2.19336556      -1.25357834      -1.29888737
H        3.18445477       0.93431168      -1.59481446
H        2.68446683      -1.07536674       1.12578141
H        2.57521390       0.71277362       1.02033686
H        4.91428547      -0.55457308       2.06277975
H        6.13196994       0.35445617       1.01228070
H        5.71693994      -1.39990191      -0.85374171
H        4.51495773      -2.23738866       0.27193103
