17
Properties=species:S:1:pos:R:3 -1649.1099362369714=T 11.185509=T 12.07509=T -8.4519=T -6.3838=T -9.519=T 0.9669=T 0.042=T 2.903=T 9.17938=T -2.5633=T 7.4060929338=T 12.2804165448=T 0.09850243=T pbc="F F F"
C       -1.74694169       0.61484909       0.24005607
N       -1.71729544      -0.81475787      -0.30070452
C       -0.22546810      -0.78564188       0.05537181
C        1.11611454      -1.15213672      -0.55351571
C        1.96048117       0.11147208      -0.03180229
N        1.03267506       1.18579619       0.50870233
C       -0.22906144       0.70712340      -0.07746035
H       -2.43637234       1.29982674      -0.27154636
H       -1.97935694       0.58022407       1.31545381
H       -1.79729397      -0.74207096      -1.32453577
H       -0.20708783      -1.05259822       1.12913182
H        1.54967166      -2.10281067      -0.21390168
H        1.08634702      -1.15369695      -1.65320295
H        2.67694698      -0.17706099       0.74905114
H        2.53308575       0.53453284      -0.86925570
H        0.97914489       1.06025755       1.52516577
H       -0.17803932       0.94737231      -1.15763741
