18
Properties=species:S:1:pos:R:3 -1823.9604677382429=T 11.798054=T 13.40552=T -11.3652=T -9.0431=T -11.696=T 0.783=T -0.2584=T 1.515=T 11.23445=T -1.09344=T 5.3589104934=T 11.4144239292=T 0.165777615=T pbc="F F F"
C        1.11337438      -0.29864217       0.25483236
C        2.61802067      -0.18616106       0.00448537
C        3.14539526       1.23326531       0.22350220
C        4.66185575       1.39689932      -0.02522205
C        5.11971195       2.86262300       0.09409890
C        5.43414960       0.54516431       0.88622880
N        6.04132554      -0.12653192       1.62249190
H        0.75805141      -1.32496722       0.08757911
H        0.54418441       0.36519501      -0.41394021
H        0.86153368      -0.02365688       1.29029189
H        2.84697800      -0.50326192      -1.02764116
H        3.15743213      -0.88157559       0.66789577
H        2.91927719       1.56400249       1.25136949
H        2.62685573       1.93260476      -0.45378698
H        4.88576040       1.03857192      -1.04633052
H        4.91290825       3.25295923       1.09995933
H        4.57673665       3.47817494      -0.63579593
H        6.19559901       2.96127645      -0.09816828
