13
Properties=species:S:1:pos:R:3 -1291.6562086134727=T 10.256474=T 10.26794=T -8.7696=T -6.7399=T -9.373=T 0.3012=T -1.3897=T -0.387=T 8.78656=T 0.90244=T 4.9992767018=T 7.0311096754=T 0.327762488=T pbc="F F F"
C        1.02951523       0.05228724       0.06806714
C        2.53013699      -0.08147875      -0.00708909
C        3.15708766      -1.26532349       0.13786818
C        3.25018621       1.17903261      -0.25070120
N        4.53484955       1.23224210      -0.33201564
O        4.96659532       2.55394613      -0.56967739
H        0.73262413       0.73945694       0.87610773
H        0.55380594      -0.91904376       0.25090403
H        0.62155161       0.46511425      -0.86816891
H        2.58979740      -2.17820938       0.32111416
H        4.24277602      -1.33977275       0.07894326
H        2.65945298       2.09982920      -0.36433827
H        5.93438095       2.44585967      -0.60699400
