16
Properties=species:S:1:pos:R:3 -1607.462307796769=T 10.312853=T 11.30286=T -9.2075=T -6.9862=T -10.536=T 0.8748=T -0.0664=T 2.924=T 9.90519=T -2.63008=T 8.3553793442=T 12.4093743834=T 0.128187308=T pbc="F F F"
N        0.99267529       0.04091806       0.00859104
C        2.45533922       0.01075780      -0.01354906
C        3.04274287      -1.14241067       0.85923376
C        3.86003929      -0.27050816       1.83585451
C        4.56346149       0.75401500       0.91874303
C        3.08658388       1.18268970       0.78650779
O        2.88680257       0.78061069       2.18916386
H        0.62176903      -0.84745729      -0.33681236
H        0.64632008       0.76238087      -0.62951128
H        2.88732744      -0.00923081      -1.03496292
H        3.65634513      -1.85657332       0.29212145
H        2.24515418      -1.67880272       1.39101694
H        4.33961551      -0.74293101       2.70206081
H        5.10316259       0.39696784       0.02816023
H        5.15039172       1.48199370       1.49000991
H        2.76124971       2.20722030       0.56461228
