10
Properties=species:S:1:pos:R:3 -1103.585118320728=T 8.150772=T 7.88735=T -8.1459=T -6.1332=T -8.048=T 0.8714=T -0.0412=T 1.049=T 7.6115=T -0.52278=T 4.8686574508=T 12.4732891664=T 0.456784335=T pbc="F F F"
N       -1.13400394      -0.00014019       0.00054050
C       -0.34308036       1.12873455       0.00022068
C        0.97686858       0.71246674      -0.00013950
C        0.97686605      -0.71276017      -0.00003682
C       -0.34309322      -1.12902181       0.00038519
H       -2.14701509      -0.00015416       0.00083927
H       -0.78102857       2.12123188       0.00027868
H        1.84556093       1.36405585      -0.00044333
H        1.84551744      -1.36439894      -0.00024476
H       -0.78100181      -2.12153374       0.00059009
