20
Properties=species:S:1:pos:R:3 -1936.7161858223988=T 13.551249=T 15.0434=T -8.6401=T -6.5129=T -9.064=T 1.0845=T 0.0203=T 1.451=T 8.52164=T -0.80282=T 6.3357093972=T 0.404544497=T pbc="F F F"
C        2.60014197      -1.54332401       0.96584869
C        3.62082029      -0.84141061       0.05693811
C        3.25573011       0.58406620      -0.23991983
C        3.98961736       1.65755837       0.08404792
C        3.60058345       3.07643684      -0.20855315
N        4.62974834       3.75138427      -1.00614037
C        4.28447429       5.13606305      -1.31633743
H        2.88026405      -2.59258927       1.13773235
H        1.59520596      -1.53356391       0.51729814
H        2.53437364      -1.04176192       1.94218499
H        3.69143329      -1.40088698      -0.89305989
H        4.62134013      -0.87639982       0.51700296
H        2.29390230       0.74015455      -0.74786630
H        4.95620790       1.52370286       0.58443696
H        3.51164205       3.63713739       0.74106919
H        2.59321366       3.10000864      -0.68202385
H        4.76014135       3.22721569      -1.87518548
H        4.27695195       5.72748414      -0.38727014
H        3.29237690       5.26268761      -1.80088086
H        5.04915101       5.56707690      -1.97736201
