15
Properties=species:S:1:pos:R:3 -1533.7447859987594=T 10.672861=T 11.02982=T -8.1661=T -6.1898=T -9.26=T 1.5095=T -0.0817=T 0.754=T 8.81273=T -0.12948=T 4.9975408978=T 11.293512782=T 0.126500212=T pbc="F F F"
C        1.75247810      -0.09444709       0.41205839
C        0.91643078      -1.39248511       0.24964706
N       -0.18703973      -0.61844664      -0.42480272
N       -1.23981200      -0.34109054       0.46723762
C       -1.27951286       0.92474419       0.71635034
C       -0.16287556       1.74349811       0.10288326
C        0.70448650       0.62155082      -0.47616537
H        2.77733093      -0.12341894       0.01946340
H        1.77444066       0.28354416       1.44374804
H        1.35040273      -2.13187326      -0.43853785
H        0.58523445      -1.88954261       1.17046499
H       -2.08617394       1.32921977       1.33038115
H        0.35282790       2.36678692       0.85262151
H       -0.53631591       2.42228721      -0.68176965
H        1.04826796       0.82059300      -1.49973017
