19
Properties=species:S:1:pos:R:3 -1865.6114180610705=T 11.917489=T 13.59269=T -9.1177=T -7.0017=T -10.771=T 0.9779=T 0.1034=T 3.205=T 10.36563=T -2.91365=T 8.681065769=T 11.3255507644=T 0.189904247=T pbc="F F F"
C        2.16651580       4.52739463      -0.81517834
C        3.32514228       3.89147787      -0.07056151
O        3.86012586       2.83297609      -0.87764672
C        4.94135368       2.18762844      -0.25460008
C        5.92806561       1.51374201      -1.15859298
C        6.33799170       2.75544153      -0.38063236
C        7.32602458       2.66283386       0.75891426
H        1.73469887       5.34279841      -0.21807713
H        1.37871071       3.78786105      -1.01439003
H        2.50263629       4.94157197      -1.77590223
H        2.98817286       3.48166392       0.90248158
H        4.11676812       4.63610546       0.14037020
H        4.68659802       1.69036195       0.69249097
H        5.75709126       1.62447893      -2.22958156
H        6.33127029       0.54808347      -0.84863286
H        6.39463440       3.66362476      -0.98754457
H        7.16306974       1.74851709       1.34954939
H        7.23592748       3.52104217       1.44251039
H        8.36285246       2.63348639       0.38967358
