13
Properties=species:S:1:pos:R:3 -1383.0742123986167=T 10.29164=T 10.55764=T -8.4443=T -6.6391=T -9.415=T 0.8836=T -0.731=T -0.314=T 8.87779=T 0.89381=T 4.1378715682=T 12.2798958036=T 0.356841942=T pbc="F F F"
C        0.97294250      -0.03647515       0.06168783
C        2.46158849       0.05511171       0.04486126
C        3.28277535       1.14016860      -0.01810401
C        4.66506064       0.67419727      -0.06409620
O        5.73754699       1.27009160      -0.01735325
N        4.55548257      -0.75023097      -0.16405290
N        3.21487346      -1.11966159       0.11010222
H        0.53047837       0.96508721       0.02447278
H        0.61896697      -0.54285617       0.97146781
H        0.59709045      -0.60530635      -0.80319722
H        2.99182055       2.18459068       0.01222141
H        5.24310883      -1.27818552       0.37524001
H        2.89419482      -1.87485130      -0.50343974
