14
Properties=species:S:1:pos:R:3 -1477.3728235107144=T 10.507733=T 11.3757=T -9.4724=T -7.3047=T -9.812=T 0.8838=T -0.2408=T 0.92=T 9.35189=T -0.8915=T 5.371197506=T 6.4669485782=T 0.331934696=T pbc="F F F"
C        1.03046736      -0.01199338       0.54179088
C        2.45646604      -0.13352803       0.01181538
O        2.37888134      -0.69416182      -1.30770542
C        3.54075736      -1.18942486      -1.84848992
C        4.77926191      -1.15601331      -1.34202940
C        3.12994670       1.18101542      -0.00072166
N        3.63182613       2.23335934       0.01776081
H        1.03827231       0.42151654       1.54927797
H        0.57501657      -1.00885394       0.58147427
H        0.43489527       0.63144778      -0.11692495
H        3.05037356      -0.80827147       0.65601412
H        3.31330161      -1.64761569      -2.81246094
H        5.04861050      -0.67284628      -0.40490275
H        5.58099334      -1.61403030      -1.91729840
