14
Properties=species:S:1:pos:R:3 -1426.751145802569=T 9.937711=T 10.91187=T -9.505=T -7.3619=T -10.747=T 0.8097=T -1.2639=T -0.35=T 10.19691=T 0.72023=T 3.657401021=T 12.4384491004=T 0.152604341=T pbc="F F F"
O        1.61758289       2.12385994      -1.08932106
C        1.66222016       1.70517223       0.05348441
C        2.77455528       2.02673539       1.01906713
N        3.88854773       2.68354147       0.37437501
C        4.68735305       3.53655552       1.23856426
C        5.98587681       3.94509163       0.56389720
O        6.57720697       4.98138365       0.79595054
H        0.84707503       1.06467491       0.47242662
H        3.08305097       1.08647248       1.51526123
H        2.28408262       2.63053182       1.82018272
H        3.53911946       3.18442843      -0.44801980
H        4.99500966       2.94929163       2.12497578
H        4.18000470       4.44482666       1.62143573
H        6.37434468       3.19249424      -0.16970977
