12
Properties=species:S:1:pos:R:3 -1383.453269700788=T 10.565394=T 10.43771=T -8.8642=T -6.8629=T -8.687=T 0.3294=T -1.3964=T -0.478=T 8.16337=T 0.97642=T 4.1450503576=T 5.9447443434=T 0.356835187=T pbc="F F F"
O        2.70982479      -1.11607939       0.01019631
C        2.20476864      -0.01179880      -0.00127189
N        2.92782155       1.18723721       0.00321520
C        2.35610259       2.46430859      -0.01084660
C        3.37810396       3.37768590      -0.00063321
C        4.61561697       2.64586219       0.02012894
C        4.31696507       1.30666977       0.02203614
H        1.10871119       0.17342588      -0.01833149
H        1.27815079       2.58577425      -0.02651722
H        3.26381607       4.45753280      -0.00708473
H        5.61540868       3.07002562       0.03230027
H        4.93399969       0.41598598       0.03476828
