16
Properties=species:S:1:pos:R:3 -1610.642894077795=T 10.609577=T 11.45839=T -9.0492=T -6.869=T -10.497=T 0.8918=T -0.9849=T 0.016=T 9.9651=T 0.65274=T 3.726647202=T 12.432138213=T 0.137572462=T pbc="F F F"
C        0.94043316       0.08209922       0.21485423
C        2.43520260      -0.02923067      -0.08387993
C        3.31726053       0.98797891       0.72865177
N        3.71110978      -0.11426925       1.64194530
C        3.19469024      -1.13774391       0.68624768
C        2.69600706       0.06099908      -1.56680568
O        3.38405512      -0.70308587      -2.21974924
H        0.77463584       0.12616381       1.29993695
H        0.39326810      -0.78584854      -0.18248762
H        0.51122477       0.99111154      -0.23465002
H        2.76544434       1.80789719       1.21609844
H        4.14129639       1.41519755       0.12918382
H        4.71798693      -0.17239637       1.80581690
H        3.95695713      -1.61646544       0.05021567
H        2.57129295      -1.91252624       1.15901167
H        2.20290506       0.94332900      -2.05831993
