15
Properties=species:S:1:pos:R:3 -1547.3386382366818=T 10.774393=T 11.74943=T -9.1036=T -6.9918=T -9.54=T 0.8353=T -1.2508=T -0.09=T 10.18771=T 0.70804=T 3.6579961538=T 6.247344575=T 0.260097118=T pbc="F F F"
C        0.62441729      -0.04823557       0.18965126
C        2.07588989      -0.39181856       0.05271054
C        2.58839518      -1.63213007       0.14445531
O        2.80821733       0.75075048      -0.18119415
C        4.21439736       0.59950359      -0.33248015
C        4.80930006       1.97324475      -0.57213258
O        5.99899258       2.15984102      -0.72639726
H        0.47407035       0.66199703       1.01610344
H        0.02987079      -0.94792925       0.38180265
H        0.25518076       0.43392506      -0.72762281
H        1.91717252      -2.46698659       0.33254061
H        3.64751491      -1.85540225       0.04044840
H        4.46093577      -0.05608632      -1.18853332
H        4.67349835       0.15839313       0.57179615
H        4.06293687       2.80718356      -0.59589810
