20
Properties=species:S:1:pos:R:3 -1956.2781759186446=T 12.22973=T 13.5298=T -8.6108=T -6.5978=T -10.051=T 0.9191=T 0.0018=T 3.005=T 9.30315=T -2.7244=T 8.2023682216=T 10.83389668=T 0.134722536=T pbc="F F F"
C        0.91073171       0.02254581       0.17818944
C        2.42508295       0.02914659      -0.03106084
C        3.16894231       1.11774063       0.78769705
N        4.52209774       0.61451934       1.05945837
C        4.32131250      -0.82929652       1.31083301
C        5.60791715      -1.62401347       1.13939023
C        3.14516409      -1.28093507       0.39457229
H        0.42185738      -0.75475025      -0.42768598
H        0.46200680       0.98909065      -0.09858694
H        0.66379704      -0.17107441       1.23456759
H        2.62776230       0.21255558      -1.10015673
H        2.65392539       1.26889272       1.75446720
H        3.20846268       2.09306009       0.28189953
H        5.08212951       0.71146561       0.20428553
H        3.99331953      -0.91544841       2.36355166
H        5.96630276      -1.56617833       0.09820872
H        5.44821340      -2.68518494       1.37716517
H        6.39793587      -1.23880665       1.79911473
H        3.52817071      -1.82557017      -0.48299713
H        2.46302818      -1.96370881       0.92564711
