15
Properties=species:S:1:pos:R:3 -1487.1834683682262=T 10.310871=T 10.86481=T -8.316=T -6.3091=T -9.108=T 0.9568=T -0.2769=T 0.772=T 8.66109=T -0.16381=T 5.1279617712=T 9.1204597544=T 0.141069017=T pbc="F F F"
O        2.36292007      -0.31721675      -1.53229346
C        2.40949970       0.01930471      -0.14047385
C        3.24571750       1.28584663       0.00486075
C        3.43936502       1.75180689       1.46159055
N        3.48893268       3.22531840       1.30529929
N        2.75664111       3.58265937       0.16997393
C        2.62751668       2.53993944      -0.57981924
H        1.79410394      -1.09789509      -1.63605069
H        2.86819197      -0.79843950       0.44796027
H        1.39457073       0.20195690       0.26071654
H        4.22258327       1.10193461      -0.48160216
H        4.36174940       1.37722496       1.92316973
H        2.57436338       1.43878026       2.08044611
H        3.16311421       3.76424575       2.10754117
H        2.17190036       2.61677342      -1.56561894
