15
Properties=species:S:1:pos:R:3 -1512.153422067502=T 10.722768=T 11.90118=T -10.093=T -7.758=T -9.883=T 0.9423=T -0.0684=T 2.251=T 9.70389=T -1.85501=T 4.3952665042=T 10.5509854252=T 0.284223212=T pbc="F F F"
C        1.52029570      -0.56056549       0.41786941
O        2.88610898      -0.20330528       0.25348344
C        3.04925504       1.17347437      -0.05865007
C        4.55488546       1.46480114      -0.10142392
O        5.17016729       1.13743917       1.14876420
C        5.21108947       0.80125665      -1.23654233
C        5.76190440       0.26138354      -2.17334536
H        1.49544142      -1.62778067       0.67036108
H        0.94651949      -0.39619104      -0.51271248
H        1.04650562       0.01714340       1.23319728
H        2.59234328       1.80413644       0.72862906
H        2.58312027       1.41933781      -1.03216662
H        4.67927594       2.55505316      -0.21534985
H        4.92612899       0.20791254       1.32508422
H        6.25281865      -0.22013576      -2.99451804
