11
Properties=species:S:1:pos:R:3 -1301.8170360630745=T 9.407107=T 9.58598=T -9.1446=T -7.1062=T -10.527=T -1.0816=T -2.9393=T -1.878=T 9.79287=T 2.3438=T 2.5173373524=T 4.7631205676=T 0.255968091=T pbc="F F F"
O        1.14983879       0.01413685       0.53147529
C        2.30206212      -0.01320013       0.16238302
C        3.17271291      -1.24454838      -0.09023012
C        4.48585165      -0.65375534      -0.52585602
C        4.49786811       0.69780954      -0.55914549
C        3.19179965       1.24069433      -0.15042519
O        2.82864192       2.40058947      -0.05806055
H        2.71785333      -1.89332671      -0.85608719
H        3.25807701      -1.85555419       0.82288808
H        5.33999386      -1.28135094      -0.78717514
H        5.34020065       1.32637550      -0.84388670
