15
Properties=species:S:1:pos:R:3 -1604.5099238176538=T 12.170075=T 12.11662=T -8.6877=T -6.5571=T -8.327=T 0.4468=T -1.0823=T 0.179=T 7.81473=T 0.38128=T 4.895029273=T 0.688872915=T pbc="F F F"
C        1.05228322      -0.11837236      -0.36030977
C        2.39437912      -0.01284988      -0.30619973
C        3.12476709       1.23197240      -0.17278267
C        4.46302811       1.38829583      -0.11188529
C        4.81511383       2.83252374       0.02639263
O        3.55995255       3.53511082       0.04321662
C        2.47946159       2.59351606      -0.07729759
H        0.56688932      -1.08890850      -0.46113985
H        0.40052057       0.75574496      -0.30588238
H        3.00240190      -0.92125719      -0.36487207
H        5.20287534       0.58894410      -0.15524526
H        5.37215178       3.04548100       0.96029005
H        5.43493295       3.20018664      -0.81531287
H        1.87923205       2.83142417      -0.97606960
H        1.81586058       2.67651823       0.80442777
