17
Properties=species:S:1:pos:R:3 -1673.2063285441627=T 11.047347=T 11.90404=T -8.6583=T -6.5685=T -10.234=T 0.8882=T -0.0402=T 3.125=T 9.5795=T -2.81914=T 8.284930499=T 12.3813411488=T 0.121743527=T pbc="F F F"
N        0.98823585       0.04292966      -0.00319497
C        2.45184451       0.02793672       0.01254453
C        3.03543088      -1.12215662       0.89545694
C        3.87117907      -0.26307601       1.86246542
C        4.55109445       0.76648726       0.92212544
C        3.07138753       1.21240059       0.79365726
N        2.83475021       0.78601293       2.23423749
H        0.63968969      -0.85041707      -0.35961492
H        0.65431992       0.75817723      -0.65486362
H        2.90327593       0.00110125      -1.00004080
H        3.63923118      -1.84332897       0.32768065
H        2.23302798      -1.64648269       1.43225803
H        4.39995795      -0.77268650       2.67883112
H        5.08994199       0.41176140       0.02553005
H        5.15732735       1.49812958       1.47422525
H        2.76997368       2.22742207       0.50076709
H        3.32393184       1.48079920       2.81651506
