15
Properties=species:S:1:pos:R:3 -1568.9300346540495=T 11.82499=T 12.85059=T -9.7253=T -7.4803=T -9.312=T 1.1183=T -0.2244=T 1.195=T 8.87125=T -0.63938=T 4.3446306218=T 10.666701559=T 0.628294212=T pbc="F F F"
O        2.67271430      -0.70859142       1.12567725
C        2.34055745       0.00591733      -0.06519973
C        2.93331894       1.42971816       0.02502797
C        2.41660042       2.17286134       1.24165098
C        1.66397344       3.27436300       1.17497866
C        4.39803207       1.40482765       0.00427877
C        5.61142196       1.39366377      -0.01782589
H        2.42483316      -1.63830936       0.99812221
H        1.24500467       0.10220896      -0.18021720
H        2.75160151      -0.49132756      -0.96147378
H        2.58606131       1.96330510      -0.87869745
H        2.69437944       1.74110954       2.20620517
H        1.38524731       3.72194333       0.21718208
H        1.30333708       3.77044359       2.07705593
H        6.68192693       1.38235659      -0.03239498
