17
Properties=species:S:1:pos:R:3 -1644.6144525779443=T 11.071328=T 11.81868=T -8.8956=T -6.9013=T -9.696=T 0.5982=T -0.3821=T 0.803=T 8.85448=T -0.13923=T 4.8261674486=T 12.549924913=T 0.241637819=T pbc="F F F"
C        1.16089007      -0.45514037      -0.36392808
C        2.61511834      -0.49151596       0.05535149
N        3.27329533      -1.56129288       0.37941417
N        3.23268600       0.73059119       0.06933543
C        4.68422946       0.92655497       0.17447745
C        5.31167558       0.52498867       1.52051711
O        5.61239871      -0.85158764       1.62825779
H        1.08021730      -0.34067572      -1.45540565
H        0.63005927       0.38649906       0.10403036
H        0.65303281      -1.38238121      -0.07508384
H        2.67845110      -2.39073114       0.32607506
H        2.68874329       1.51515934      -0.26978156
H        4.85740919       1.99931672       0.00497173
H        5.19824101       0.36518765      -0.62585119
H        4.64397567       0.87628054       2.33520373
H        6.26548554       1.07013278       1.62135268
H        4.82304131      -1.32492599       1.23922332
