20
Properties=species:S:1:pos:R:3 -1940.10583619512=T 12.563935=T 14.30766=T -9.2037=T -6.9027=T -10.559=T 0.9419=T 0.021=T 3.134=T 9.94789=T -2.84972=T 8.6706137492=T 11.09302742=T 0.225133689=T pbc="F F F"
C        2.14469636      -0.89126285      -0.63864167
C        1.90912567       0.42090363       0.11611362
C        3.14871973       1.28772120       0.20196149
C        3.51764018       2.21383735      -0.93736780
C        3.04063831       2.78066606       0.38657460
C        4.00708151       3.52304820       1.27878755
N        4.07031723       4.94391640       0.89928002
H        1.22840182      -1.49743001      -0.68500972
H        2.92138201      -1.49749413      -0.14800425
H        2.47694578      -0.69905287      -1.66976779
H        1.54565942       0.20201750       1.13513532
H        1.10549332       0.99332800      -0.37813520
H        3.99784656       0.81378901       0.70733894
H        2.84010179       2.26415489      -1.79208165
H        4.57498504       2.32328203      -1.18907313
H        2.02733462       3.19352727       0.38788082
H        4.98683125       2.99958199       1.24833828
H        3.65558666       3.47390448       2.32349432
H        4.43492079       5.02400996      -0.05399671
H        4.72790197       5.44102189       1.50430297
