17
Properties=species:S:1:pos:R:3 -1606.2060141805725=T 10.985265=T 12.01927=T -8.3647=T -6.2223=T -9.737=T 0.8518=T -0.1003=T 3.126=T 9.45599=T -2.77197=T 7.7625402852=T 11.6552047412=T 0.154488275=T pbc="F F F"
C        2.23851961      -0.70994348      -1.16869294
O        1.86413454       0.46340284      -0.44406087
C        2.98683877       1.20502952      -0.03560013
C        3.52408257       2.31373982      -0.96155449
N        2.97306966       2.61288937      -2.26523484
C        2.74470144       2.66866141       0.27211080
N        3.35545383       3.40181361       1.35967441
H        1.30906219      -1.21561404      -1.46051784
H        2.83777231      -1.39233003      -0.53821320
H        2.82142661      -0.46344744      -2.07341375
H        3.70682041       0.65398936       0.58709658
H        4.60385695       2.48810821      -0.90881110
H        1.96608757       2.43123816      -2.25971232
H        3.37255520       1.98193796      -2.96575566
H        1.71406179       2.98199543       0.06896034
H        4.36653793       3.25419851       1.37075991
H        2.99687863       3.06819078       2.25891509
