13
Properties=species:S:1:pos:R:3 -1343.4135942851367=T 10.691311=T 11.56281=T -9.3911=T -7.3676=T -9.984=T 0.803=T -0.3151=T 0.805=T 9.51601=T -0.26318=T 4.413157684=T 10.4688323016=T 0.386682044=T pbc="F F F"
N        1.25711324      -0.23127231      -0.86092452
C        2.50232381      -0.24708836      -0.24259456
N        3.08488785      -1.19036252       0.40086422
O        3.12167886       0.94971154      -0.46639144
C        4.48492018       1.01488361       0.02469398
C        5.03483747       2.31915915      -0.30115801
C        5.53997554       3.39202332      -0.55408400
H        0.90001810       0.69904212      -1.06773439
H        0.56648968      -0.84962640      -0.44762186
H        2.49577283      -2.02536423       0.45901785
H        5.07452595       0.20582329      -0.43461568
H        4.48919250       0.83921767       1.11177841
H        5.97960399       4.34220313      -0.77962000
