17
Properties=species:S:1:pos:R:3 -1701.5787648142016=T 10.559533=T 11.80171=T -9.8234=T -7.793=T -10.79=T 0.8247=T -0.9331=T 0.04=T 9.83425=T 0.6967=T 3.8024894382=T 11.2413394732=T 0.116521957=T pbc="F F F"
C        1.03038764      -0.10755577       0.15351366
C        2.52241053      -0.12787739      -0.20946123
C        2.83489671      -1.21057180      -1.26049456
C        2.95931171       1.22545371      -0.75210684
O        2.37785515       1.79598674      -1.67035792
C        4.17938990       1.88573431      -0.13846037
O        4.49508631       3.09709521      -0.77453418
H        0.81494858       0.63270116       0.93695489
H        0.71661729      -1.09443255       0.52156652
H        0.42775686       0.14531962      -0.72942119
H        3.11647010      -0.33578634       0.69766195
H        2.27367996      -1.01496976      -2.18498134
H        2.54486236      -2.19959985      -0.87866200
H        3.90551846      -1.24295756      -1.50870222
H        5.02540440       1.17112763      -0.19106192
H        3.97131720       2.03805586       0.94078487
H        3.79120683       3.19698679      -1.45721812
