19
Properties=species:S:1:pos:R:3 -1769.6851956825867=T 11.383203=T 12.41989=T -9.0085=T -6.8198=T -10.467=T 0.7906=T -0.2208=T 2.931=T 9.76683=T -2.63312=T 8.4049737442=T 10.6281915074=T 0.094724766=T pbc="F F F"
C        4.15184896      -1.29895110       0.95159998
C        3.29037962      -0.62529311      -0.12753393
N        1.84327236      -0.86618300       0.01962041
C        3.48977651       0.89536195      -0.20108122
O        3.11981928       1.47451414       1.05385279
C        4.91180245       1.33614574      -0.56361508
N        4.97088048       2.80638097      -0.46372164
H        5.23004857      -1.19828957       0.75042013
H        3.92869362      -2.37535917       0.99174280
H        3.94252954      -0.86235620       1.93835491
H        3.58350671      -1.02572134      -1.11592295
H        1.52647856      -0.39611624       0.87360743
H        1.67590526      -1.86524650       0.16300151
H        2.79974014       1.26033442      -0.99171787
H        3.54547761       2.35981665       1.03371917
H        5.18643817       0.93611944      -1.55830517
H        5.61964054       0.92911832       0.17406384
H        4.55150435       3.23832283      -1.29096334
H        5.93716728       3.13168176      -0.41778177
