17
Properties=species:S:1:pos:R:3 -1635.9448839893012=T 11.232581=T 12.02382=T -8.6532=T -6.7133=T -9.727=T 0.8272=T -0.1723=T 1.178=T 8.968=T -0.58252=T 4.9225417664=T 6.3404704596=T 0.197954322=T pbc="F F F"
C        2.88195875       3.91950515       1.20395667
O        4.10254921       3.18967272       1.15389577
C        4.31198973       2.58557914      -0.12646137
C        5.66457519       1.87411973      -0.14139315
C        6.86730809       2.80857962      -0.15615978
N        6.98831041       3.58565098       0.97896944
N        7.75740419       2.88636809      -1.08812717
H        2.79616703       4.33805834       2.21432367
H        2.01449415       3.26204333       1.01077319
H        2.87265368       4.74300143       0.46635311
H        4.27231441       3.35929494      -0.91873826
H        3.50293672       1.85597719      -0.32563669
H        5.70526252       1.23667214      -1.03539024
H        5.71941895       1.21332087       0.73937790
H        6.12566807       3.79201522       1.47906070
H        7.66611920       4.34035578       0.90372984
H        7.55971970       2.19773532      -1.82185366
