17
Properties=species:S:1:pos:R:3 -1638.0719633393803=T 10.474207=T 11.29341=T -8.7486=T -6.5515=T -10.234=T 0.9228=T -0.0043=T 2.95=T 9.54177=T -2.62354=T 8.3067024406=T 10.3648824392=T 0.111054323=T pbc="F F F"
C        0.96601561      -0.02152623       0.24945913
C        2.44908675      -0.00335389      -0.12419075
C        2.64985456       0.02183312      -1.63378389
C        3.24867885       1.04439218       0.71098366
N        3.58160159      -0.02351421       1.69334645
C        3.26706810      -1.06387332       0.67617193
H        0.83946140      -0.04324409       1.34112533
H        0.46569363      -0.90682574      -0.17391214
H        0.45336667       0.87233715      -0.13978070
H        3.71711109       0.04247027      -1.89906479
H        2.17216246       0.90820852      -2.08060412
H        2.20084644      -0.86683202      -2.10541957
H        2.68305956       1.89187690       1.13271186
H        4.11741498       1.43484097       0.14790000
H        4.55249108      -0.02044311       2.01253453
H        4.14235321      -1.41964407       0.10051578
H        2.71683401      -1.93495243       1.06888729
