18
Properties=species:S:1:pos:R:3 -1808.2617718642616=T 12.504859=T 13.30101=T -8.3125=T -6.3076=T -9.081=T 1.3547=T -0.0321=T 1.464=T 8.48696=T -0.80468=T 6.3307003628=T 0.399570664=T pbc="F F F"
C        1.07174001       0.00527120      -0.12822577
N        2.49864411      -0.02761433       0.13514857
C        2.98866665       1.10435577       0.92864811
C        4.41394901       0.67376561       1.29515810
C        4.29528671      -0.83577374       1.42245457
C        5.20014638      -1.67076857       1.94337561
C        2.93884120      -1.22185046       0.86611920
H        0.78556678      -0.85372543      -0.75261353
H        0.81485698       0.92253794      -0.67780096
H        0.46110909      -0.02534746       0.80331345
H        2.38270982       1.25125467       1.85368889
H        2.94307878       2.03435770       0.34253315
H        5.10596358       0.92414572       0.47545207
H        4.78789019       1.14900650       2.21239329
H        5.03024077      -2.74873143       1.97755883
H        6.14332687      -1.30531015       2.35397601
H        2.97052105      -2.10269513       0.20587370
H        2.24843201      -1.45975841       1.71199670
