15
Properties=species:S:1:pos:R:3 -1544.3352985275274=T 10.180834=T 11.28739=T -9.3064=T -7.2488=T -10.44=T 0.7815=T -0.9942=T 0.304=T 9.60345=T 0.45324=T 3.7126863784=T 11.276464707=T 0.083806998=T pbc="F F F"
C        2.14203271      -0.43448008      -1.62160432
O        2.20881793       0.10831032      -0.30331300
C        2.98485320       1.26829329      -0.23096940
C        2.40137195       2.67320606      -0.61524455
C        3.06364316       3.28718523       0.65169580
C        3.23758541       1.85076172       1.17916242
O        3.35481529       1.36541096       2.27763173
H        1.55916636      -1.36092993      -1.55271919
H        3.15139220      -0.66773904      -2.00754737
H        1.64190104       0.25604638      -2.32372264
H        3.97054586       1.12935483      -0.72769642
H        1.30631316       2.66578390      -0.53365515
H        2.70252806       3.08360384      -1.58576458
H        4.03085509       3.77405560       0.45812916
H        2.45600857       3.94645692       1.28450750
