20
Properties=species:S:1:pos:R:3 -1943.9162257581236=T 12.450835=T 13.84525=T -8.7866=T -6.6824=T -10.161=T 0.9233=T 0.0152=T 2.929=T 9.59128=T -2.64142=T 8.269494242=T 9.9797447274=T 0.102827051=T pbc="F F F"
C        2.31936781      -0.52343152      -1.55323276
C        2.48125827      -0.00212307      -0.12205915
C        3.23456677       1.31760359      -0.03565645
C        2.58033339       2.62899766      -0.55784175
C        3.25015780       3.38581992       0.62051861
C        3.39829951       2.02936912       1.35024825
N        4.55397554       1.85445624       2.21519546
H        1.75986389      -1.46986107      -1.57703959
H        3.29895237      -0.70187612      -2.02305909
H        1.77790395       0.20019959      -2.18109954
H        3.00766694      -0.75895951       0.48676241
H        1.48593124       0.12633216       0.33950027
H        4.23791746       1.21054043      -0.48974727
H        1.48497519       2.59661629      -0.44617044
H        2.82145760       2.95601410      -1.57780855
H        4.23850641       3.77658429       0.33114716
H        2.69025104       4.18443932       1.12542949
H        2.49414682       1.83836626       1.95495168
H        5.41652998       1.90553600       1.66600291
H        4.54125803       0.93334631       2.65976835
