10
Properties=species:S:1:pos:R:3 -1190.1345390474162=T 10.122534=T 10.06053=T -9.3429=T -7.4194=T -8.829=T 0.262=T -1.4716=T -0.679=T 8.37351=T 1.12532=T 4.1090448232=T 6.5439562828=T 0.301684539=T pbc="F F F"
N        0.95652672      -0.03924572       0.00630887
C        2.12390589       0.03321352       0.00238252
C        3.54175334       0.06106536      -0.00238693
N        4.31682510       1.14389151      -0.00751123
C        5.59922306       0.66504918      -0.01074549
C        5.61244097      -0.71956364      -0.00739376
N        4.29349890      -1.09611331      -0.00209461
H        6.45306714       1.33606867      -0.01520661
H        6.41859397      -1.44464666      -0.00834358
H        3.92998491      -2.04518892       0.00143082
