15
Properties=species:S:1:pos:R:3 -1574.2490134708319=T 11.585633=T 11.83977=T -7.5673=T -5.6446=T -7.682=T 0.8253=T -0.1022=T 1.154=T 7.1974=T -0.53316=T 4.6188256608=T 6.1189818692=T 0.447946447=T pbc="F F F"
C        0.95813493       0.05293921       0.05069855
N        2.40939506       0.01756564       0.00746948
C        3.24034189       1.11542926      -0.09320367
C        4.55000623       0.66860741      -0.10040425
C        4.51653633      -0.75164466      -0.02215357
C        3.18290513      -1.13545010       0.03943063
N        2.54888109      -2.39455486       0.18837288
H        0.62682542       0.89222342       0.67618345
H        0.60602258      -0.88944399       0.48683433
H        0.52477099       0.16515386      -0.95564709
H        2.82782572       2.11779697      -0.15063441
H        5.43291794       1.29842241      -0.15773965
H        5.36660187      -1.42836287      -0.01542055
H        2.36788601      -2.85050102      -0.70963295
H        3.12723881      -3.02358068       0.74456682
