15
Properties=species:S:1:pos:R:3 -1590.836315520716=T 11.771704=T 13.48965=T -9.49=T -7.2998=T -9.62=T 0.9543=T -1.0569=T -0.082=T 9.18652=T 0.7351=T 3.6522060076=T 10.3461233574=T 0.36101825=T pbc="F F F"
C        0.96554040      -0.07597612      -0.00032262
C        2.50276119      -0.01112274      -0.01072862
C        3.02293881       1.35210964      -0.00819022
C        3.46028221       2.48725215       0.00724266
C        3.91047198       3.87137676       0.02016481
C        2.78109980       4.84565735      -0.31814289
O        2.62010069       5.91178789       0.23776922
H        0.62809809      -1.12154493       0.00361435
H        0.54737166       0.41889608      -0.88718960
H        0.55956441       0.42278007       0.88987651
H        2.89190745      -0.54506686      -0.89399132
H        2.90253407      -0.54505158       0.86782050
H        4.69335955       4.02610228      -0.74696721
H        4.34562805       4.16496978       0.98749827
H        2.10271165       4.50086022      -1.13855384
