20
Properties=species:S:1:pos:R:3 -1943.1269577887251=T 12.336814=T 13.62332=T -8.8085=T -6.6743=T -10.22=T 0.8804=T -0.049=T 2.921=T 9.64827=T -2.65654=T 8.3184439148=T 10.8306482468=T 0.110392598=T pbc="F F F"
C        0.92235571      -0.02132246       0.05340956
C        2.44273744      -0.00741361       0.04010047
C        3.19944175       1.06042511       0.87980646
C        4.26001019      -0.00686697       1.26290298
N        5.49377150       0.14996185       0.49330550
C        3.21601906      -1.10739126       0.82548242
C        3.67729872      -2.36259603       0.10514418
H        0.52192020      -0.90359607      -0.46983836
H        0.50585496       0.87163526      -0.43798451
H        0.54189219      -0.04235341       1.08729876
H        2.80096028       0.01544698      -1.00477445
H        2.60803159       1.38025464       1.75124848
H        3.58203115       1.95363735       0.36486185
H        4.54070707      -0.04292686       2.32692914
H        5.28848113       0.21489587      -0.50789589
H        6.09514051      -0.67010452       0.61157275
H        2.62218154      -1.38388278       1.71536504
H        4.32252173      -2.11964930      -0.75405372
H        2.81917552      -2.93555389      -0.27874150
H        4.24505778      -3.03019992       0.77230082
