13
Properties=species:S:1:pos:R:3 -1379.5090527428138=T 9.36347=T 10.35952=T -11.22=T -8.9051=T -11.563=T 0.7878=T -0.2384=T 1.5=T 11.12107=T -1.09978=T 5.3505910328=T 12.8278519306=T 0.223468782=T pbc="F F F"
N        0.90907558      -0.03842240       0.05415933
C        2.07649995      -0.01840474       0.02764243
C        3.52786088       0.00528143       0.03747092
C        4.25500723       1.07660389       0.91291085
C        5.30741526      -0.00399927       1.27497373
C        4.29100388      -1.09407916       0.84491500
H        3.89170550       0.04381155      -1.00070677
H        3.63798499       1.35302143       1.77804756
H        4.58965665       1.98684815       0.40036020
H        6.17445963       0.03150252       0.60026082
H        5.66621375      -0.03052883       2.31121376
H        4.65500255      -1.95895452       0.27681406
H        3.68434415      -1.44427004       1.69044812
