13
Properties=species:S:1:pos:R:3 -1405.6322975918952=T 9.983457=T 10.47413=T -8.8099=T -6.7191=T -9.307=T 1.4832=T -0.1043=T 1.028=T 8.77774=T -0.4685=T 6.1840249248=T 0.430005642=T pbc="F F F"
C        1.07409160       0.04026572       0.26174670
C        2.27059329      -0.10842799      -0.32403201
O        2.63686441      -1.25136123      -1.00652103
C        4.07244632      -1.26771395      -1.21415081
C        4.55253240       0.13001567      -0.90753292
O        3.88694962       1.13329045      -1.69077818
C        3.39819361       0.85362496      -0.34344918
H        0.81705829       0.98991763       0.72495761
H        0.33991198      -0.76293974       0.26393686
H        4.53349723      -1.99755538      -0.52692943
H        4.25524337      -1.57265654      -2.25452200
H        5.58994067       0.32558925      -0.62399169
H        3.46909719       1.67031115       0.37662608
