13
Properties=species:S:1:pos:R:3 -1425.6416864341588=T 9.977783=T 10.78747=T -9.9605=T -7.8006=T -10.046=T 1.0393=T -0.6845=T -0.001=T 9.55599=T 0.65935=T 4.313968884=T 6.7156272984=T 0.334795439=T pbc="F F F"
C        0.99966481      -0.34318465      -0.13447473
C        1.65200706       0.56882604       0.59411379
C        2.68306291       1.50060266       0.04862629
C        2.65294174       2.97836131       0.49035870
O        3.99436906       2.85104993       1.10187420
C        4.06065551       1.51049320       0.75663365
O        4.94417149       0.73511621       0.98782985
H        0.26622142      -1.01074398       0.31857618
H        1.18163912      -0.45570124      -1.20584100
H        1.45074733       0.64936310       1.66806294
H        2.80692366       1.36834854      -1.03618480
H        1.90925776       3.22981567       1.25701553
H        2.66737814       3.72663320      -0.31126059
