17
Properties=species:S:1:pos:R:3 -1674.7919702073846=T 14.439226=T 13.68101=T -7.7057=T -5.8352=T -8.182=T 0.7011=T -0.7833=T -0.025=T 7.69245=T 0.62269=T 4.520653546=T 0.561603579=T pbc="F F F"
C        1.01398865       0.06617095      -0.12124298
C        2.50746106      -0.07558333      -0.01789231
C        3.01310735      -1.49104489      -0.07635469
C        3.29682302       1.02092381       0.11298911
C        4.73601848       1.05748281       0.21737793
N        5.35066887       2.19417221       0.33894222
N        6.72029399       2.17601249       0.34642593
H        0.69603195       1.11545980      -0.06481602
H        0.50634981      -0.49251153       0.68360553
H        0.64243217      -0.35590733      -1.07074491
H        2.57779748      -2.09022303       0.74102825
H        4.10401153      -1.57154366      -0.00835399
H        2.69627765      -1.97507371      -1.01543885
H        2.82149792       2.00613285       0.14254543
H        5.31124175       0.11457681       0.18687979
H        7.08624047       2.98485516       0.84444885
H        7.15404783       1.29784058       0.65936072
