15
Properties=species:S:1:pos:R:3 -1465.858397191471=T 13.670284=T 14.15809=T -7.9008=T -6.1452=T -8.748=T 0.6513=T -0.8298=T -0.136=T 7.84805=T 0.91666=T 3.1040639016=T 11.5188201412=T 0.227807503=T pbc="F F F"
C        0.79157977      -0.18248025      -0.47625465
C        2.16194192       0.23276917      -0.00631011
C        3.39358458      -0.57283487      -0.31168006
N        3.10434862       0.69272000      -1.01364063
C        3.88562286       1.83471430      -0.83292625
N        5.13859478       1.71194338      -1.36691420
S        3.35210969       3.22660568      -0.07595872
H        0.15067354       0.70011074      -0.60932672
H        0.31707071      -0.84386864       0.26282616
H        0.85010188      -0.71416132      -1.43574541
H        2.19710162       0.80768766       0.92593253
H        3.31704356      -1.47782890      -0.92046919
H        4.20693656      -0.55516771       0.41837084
H        5.30561205       0.98197633      -2.05544480
H        5.67302787       2.57036445      -1.45190878
