17
Properties=species:S:1:pos:R:3 -1678.9124542976117=T 11.499442=T 12.61539=T -8.814=T -6.7637=T -9.287=T 0.8957=T -0.0426=T 1.049=T 8.8207=T -0.49594=T 6.107736339=T 0.32242274=T pbc="F F F"
C        2.27173101       3.87374284       1.04432198
C        3.73743088       3.54630816       0.84403616
O        3.82117035       2.31680159       0.09655176
C        5.06899230       1.85508564      -0.17906739
C        6.26103198       2.38951501       0.15083856
C        7.54127504       1.73528073      -0.26427472
O        8.30221816       2.53304629      -1.19517244
H        2.17418967       4.80572260       1.61786164
H        1.76380291       3.07243531       1.59766378
H        1.76456797       4.00715378       0.07929377
H        4.25755318       3.41396793       1.80935621
H        4.25580574       4.34444086       0.28353635
H        5.00382755       0.91590902      -0.73694279
H        6.33922153       3.32823728       0.70231027
H        7.33481314       0.73160692      -0.68298350
H        8.21570609       1.60039557       0.59540682
H        7.68404249       2.79817046      -1.90019648
