16
Properties=species:S:1:pos:R:3 -1612.8769753559725=T 10.893719=T 11.87659=T -8.9399=T -6.9119=T -10.543=T 0.9581=T -0.9018=T 0.297=T 9.72288=T 0.45719=T 3.7628883098=T 12.6283088622=T 0.141600269=T pbc="F F F"
C        2.39495533      -0.44972679      -1.46323645
C        2.41422071       0.10755675      -0.04438860
N        3.22564773       1.31584843       0.05365092
C        2.67858831       2.54782582      -0.58523568
C        3.02576582       3.30321590       0.70357200
O        3.08231809       4.46336560       1.02940090
C        3.29262574       1.96057554       1.39444917
H        1.79310934      -1.36805794      -1.50744392
H        3.41422869      -0.68087903      -1.80247106
H        1.95515817       0.27016699      -2.16949327
H        2.84753306      -0.63729480       0.64239321
H        1.37033122       0.29635545       0.30131470
H        1.57960284       2.53131364      -0.74089004
H        3.17274218       2.86993762      -1.51384636
H        4.24439465       1.84258103       1.93429671
H        2.45245810       1.69740581       2.06995777
