14
Properties=species:S:1:pos:R:3 -1438.655427069765=T 9.564153=T 10.50021=T -9.8281=T -7.751=T -11.162=T 0.9853=T -0.32=T 0.065=T 10.24603=T 0.54349=T 4.308141542=T 11.4200156978=T 0.211839096=T pbc="F F F"
C        1.14373905       0.16119268      -0.12318222
N        2.60556994       0.23183151      -0.08263294
C        3.34288941      -0.65289219      -0.98288986
C        3.27899349       0.82438598      -1.24749069
C        4.46002964       1.70526985      -0.91740550
O        4.75920685       1.71526727       0.40547910
O        5.08602371       2.32860452      -1.74864092
H        0.72902520       1.12072315       0.21395934
H        0.80520407      -0.62681836       0.56332673
H        0.75467628      -0.05920457      -1.13446951
H        2.76418828      -1.29218577      -1.65701380
H        4.25775431      -1.09340368      -0.58088304
H        2.68165711       1.14974638      -2.10347858
H        4.03177265       1.17957323       0.82525191
