17
Properties=species:S:1:pos:R:3 -1811.779930957383=T 13.540135=T 13.57005=T -8.0034=T -5.9962=T -7.921=T 0.9278=T -0.4928=T 0.549=T 7.35768=T 0.05986=T 4.8044575=T 0.640250124=T pbc="F F F"
C        0.97993101       0.02288585       0.05426785
C        2.47136618      -0.00140540       0.00061067
C        3.27781935      -1.08843861       0.00957321
C        4.68829771      -0.72949603      -0.05395179
C        5.73751104      -1.57527653      -0.02723946
C        4.75462740       0.79232293      -0.15874652
C        3.28452146       1.27282851      -0.06221344
H        0.55519713      -0.98701864       0.12463541
H        0.56155646       0.51103781      -0.84188634
H        0.62433415       0.60847981       0.91826431
H        2.92934267      -2.12182301       0.06396101
H        6.76563920      -1.21348834      -0.07572322
H        5.59093838      -2.65414407       0.04412207
H        5.20898313       1.08808194      -1.11596363
H        5.38309550       1.21757866       0.63662187
H        2.98475569       1.89567896      -0.92242197
H        3.10414353       1.89072616       0.83523996
