15
Properties=species:S:1:pos:R:3 -1551.60094884231=T 10.040208=T 11.1088=T -9.6107=T -7.4273=T -10.954=T 0.9125=T -1.036=T -0.15=T 10.12312=T 0.81148=T 3.6640218734=T 12.1583275306=T 0.098643741=T pbc="F F F"
O        0.98830292       0.09831981      -0.06525780
C        2.40285740       0.01895126      -0.00182110
C        3.06714561       1.05475172       0.92433694
C        4.07336527      -0.03940133       1.37996913
C        3.05940676      -1.10525941       0.84071705
C        3.60216089      -2.32257140       0.15505396
O        3.41011665      -2.59809100      -1.01799123
H        0.68811425      -0.48669560      -0.78278764
H        2.85011696       0.02981881      -1.01069482
H        2.37557931       1.31928564       1.73693215
H        3.46575387       1.97026826       0.46914908
H        4.99916093      -0.02414651       0.78792906
H        4.32863190      -0.08423347       2.44502426
H        2.38710628      -1.41885048       1.65814406
H        4.23551101      -2.99069630       0.79750690
