14
Properties=species:S:1:pos:R:3 -1385.5163555680488=T 9.497473=T 9.7562=T -8.3116=T -6.2455=T -9.042=T 0.9918=T -0.0905=T 0.748=T 8.59481=T -0.15771=T 5.139901623=T 5.2748727826=T 0.152171621=T pbc="F F F"
C        1.03424115       0.07118999       0.00630771
C        2.56017455      -0.04914729       0.01032402
C        3.07364746      -1.26058112      -0.80197325
C        3.38726789      -0.59437267      -2.11996436
N        3.43919308       0.69398931      -2.04706120
N        3.22093801       1.07123778      -0.72177385
H        0.71012811       0.99255415       0.51278167
H        0.57525254      -0.77756252       0.53534185
H        0.64762728       0.08583333      -1.02361793
H        2.93498067      -0.06891159       1.04419634
H        2.33342325      -2.07064829      -0.87872003
H        3.98975132      -1.68859106      -0.35854291
H        3.61290112      -1.09830459      -3.05894905
H        2.72004357       1.96105457      -0.69504901
