11
Properties=species:S:1:pos:R:3 -1155.2921962918385=T 7.992356=T 8.41051=T -9.2411=T -7.1179=T -10.2=T 1.2587=T -0.4761=T 0.395=T 9.801=T 0.16956=T 5.4648441318=T 11.929065018=T 0.182224901=T pbc="F F F"
C        0.38182528       1.49847429       0.49824296
C        0.88232062       0.35205579      -0.32094402
O        0.90507514      -0.93628720       0.29409013
N       -0.42188530      -1.31756394       0.61239105
C       -1.22872430      -0.40693577       0.17421476
C       -0.57738674       0.76546373      -0.44153044
H        0.69904510       2.49188735       0.18305654
H        0.25394255       1.35613237       1.57167825
H        1.64041316       0.46290858      -1.09619476
H       -2.30030762      -0.56708973       0.28924132
H       -1.01757789       1.27622452      -1.29793579
