15
Properties=species:S:1:pos:R:3 -1541.3669914970685=T 10.110748=T 10.94864=T -9.3582=T -7.3766=T -10.669=T 0.7502=T -0.1985=T 0.699=T 9.79242=T -0.08613=T 4.745626143=T 6.7458426866=T 0.170632857=T pbc="F F F"
C        0.95740780       0.00302901       0.09602476
C        2.47850456      -0.03256242       0.05061374
C        3.15988810       1.15469782       0.76659117
N        4.44459729       0.57192664       1.14398801
C        4.31723949      -0.81166790       1.30714362
O        5.14119942      -1.56972702       1.80047185
N        3.06182755      -1.15506043       0.79363926
H        0.52465316      -0.86922924      -0.41393256
H        0.57957872       0.90332088      -0.41066605
H        0.60219661       0.00647759       1.13612440
H        2.81679714      -0.04995178      -1.00463864
H        2.56137015       1.45740569       1.64697731
H        3.27815201       2.02083784       0.10111175
H        5.05007297       1.04165470       1.81158459
H        2.97651503      -2.10388138       0.43763679
