17
Properties=species:S:1:pos:R:3 -1730.1947052046253=T 12.355749=T 13.0237=T -8.46=T -6.4389=T -8.709=T 0.9688=T -0.5368=T 0.583=T 8.10528=T -0.11916=T 5.2620526302=T 6.6006798778=T 0.447191484=T pbc="F F F"
C        2.07350792      -0.48089516      -0.50793278
O        3.36795446       0.11194313      -0.41953407
C        3.42448333       1.40637152       0.04108369
C        2.35641465       2.14205841       0.41493518
C        4.82389390       1.90951650       0.03930851
C        5.69875835       1.48955665      -1.11371416
C        5.27042575       2.69683390       1.03350655
H        2.22826547      -1.48277326      -0.92392137
H        1.41561823       0.10290943      -1.17288357
H        1.60435851      -0.56108164       0.48654483
H        1.34109605       1.75289608       0.42504064
H        2.50477806       3.17820322       0.70781069
H        5.79805490       0.39512944      -1.14945137
H        6.69844006       1.93279455      -1.02520254
H        5.25793581       1.79766992      -2.07483231
H        4.64072790       2.94808147       1.88761874
H        6.28422665       3.10070585       1.01625335
