20
Properties=species:S:1:pos:R:3 -1935.0933317435217=T 12.358789=T 13.4422=T -8.062=T -6.0913=T -9.514=T 0.9261=T 0.0258=T 3.028=T 8.70973=T -2.68289=T 7.531715549=T 10.1187206348=T 0.112913537=T pbc="F F F"
C        1.00550131      -0.02698102       0.00835873
N        2.44976903      -0.04752076       0.13044749
C        3.10628425       0.99670829       0.94099518
C        4.16195011      -0.04412068       1.37627577
C        3.15108252      -1.13433770       0.90427759
C        2.34883618      -1.71441642       2.07647611
C        3.69181925      -2.24184920       0.00639852
H        0.65995196      -0.92808532      -0.52057444
H        0.70856217       0.84213302      -0.59867799
H        0.46610301       0.03796570       0.97882274
H        2.48785093       1.34856124       1.79399160
H        3.44795010       1.87540930       0.37044755
H        5.06770036      -0.01687970       0.75628648
H        4.43836615      -0.06174589       2.43803620
H        1.95704672      -0.92638891       2.73649971
H        2.99221199      -2.36951981       2.68264825
H        1.49887613      -2.31740841       1.72211428
H        4.26037060      -1.81104593      -0.82878385
H        2.86893888      -2.84213539      -0.41313134
H        4.34717835      -2.92276241       0.57129142
