17
Properties=species:S:1:pos:R:3 -1716.8210162409362=T 11.997248=T 13.83654=T -10.1092=T -7.6588=T -9.86=T 0.9181=T -0.0774=T 2.298=T 9.48054=T -1.93279=T 4.3683119478=T 10.6268896544=T 0.958064858=T pbc="F F F"
O        0.87142964       0.07531282       0.00416406
C        2.30300919      -0.02002289       0.01359012
C        2.87006805       1.39179598      -0.00564569
C        4.39940894       1.40943493       0.00580470
C        4.96523998       2.84341919      -0.01383518
C        6.42200169       2.88936391      -0.00100771
C        7.63606187       2.90307203       0.01523065
H        0.51009111      -0.82665630       0.01390661
H        2.66549366      -0.58164674      -0.86897014
H        2.65522724      -0.55299665       0.91784984
H        2.47577698       1.93882077       0.86702101
H        2.48921196       1.90951195      -0.90188055
H        4.79404638       0.86129726      -0.86504773
H        4.78043329       0.89084929       0.90043818
H        4.57877820       3.40355274       0.85503933
H        4.59428606       3.37335338      -0.90803345
H        8.70650576       2.92375834       0.02786595
