14
Properties=species:S:1:pos:R:3 -1469.7000867033091=T 11.979366=T 13.1834=T -9.1227=T -7.0501=T -9.577=T 1.0516=T -0.1714=T 1.807=T 9.26907=T -1.53064=T 4.364865137=T 10.8299539252=T 0.864562901=T pbc="F F F"
C        1.06069849      -0.14569953      -0.23243347
N        2.47459807      -0.02790957       0.12436231
C        2.96617298       1.36342616       0.02353592
C        2.41745453       2.19609600       1.10779394
C        1.93828016       2.90139718       1.96917282
C        4.43438136       1.38365274       0.02670634
C        5.64552136       1.38513720      -0.01719480
H        0.77722206      -1.20591771      -0.21051094
H        0.80898318       0.26805464      -1.23150637
H        0.45182608       0.38099187       0.51610231
H        3.04622390      -0.59640553      -0.50461760
H        2.63975890       1.84129903      -0.93256931
H        1.52888634       3.51798748       2.74320297
H        6.71624260       1.39252004      -0.03819412
