14
Properties=species:S:1:pos:R:3 -1334.5172872422982=T 11.260397=T 12.32112=T -10.0196=T -7.8895=T -10.215=T 1.1296=T -0.5992=T -0.027=T 9.76085=T 0.43572=T 5.5502704858=T 6.8126339448=T 0.386762805=T pbc="F F F"
N        0.93585567       0.34541005      -0.13660887
S        2.56014233      -0.15842133      -0.09906940
O        2.76491766      -0.93865590       1.12757677
O        2.89348159      -0.67674285      -1.42932017
C        3.40735567       1.44330838       0.12156384
C        4.87874197       1.24462777       0.28735580
C        5.78668395       1.67500104      -0.59477717
H        0.52803160       0.03592590      -1.02234005
H        0.44621947      -0.08553223       0.65172351
H        2.93675949       1.88084253       1.01396653
H        3.15456532       2.04095673      -0.76397757
H        5.19317503       0.71135914       1.18858230
H        5.49431405       2.20035585      -1.50677879
H        6.85289620       1.51525493      -0.43202672
