17
Properties=species:S:1:pos:R:3 -1599.2145405189106=T 11.573902=T 12.33047=T -8.9199=T -6.8005=T -10.446=T 1.3663=T -0.3163=T 0.501=T 10.13944=T 0.11344=T 5.5438356124=T 6.636536629=T 0.136868011=T pbc="F F F"
C        1.29436734      -0.16367431       0.34169817
N        2.67732480       0.11295458       0.73503960
C        3.11706111       1.49180981       0.45276578
C        2.37030142       2.50082483       1.33697270
C        4.59264014       1.56922242       0.72963078
N        5.39753089       1.86032755      -0.22347619
O        6.73999324       1.89862866       0.23446813
H        1.11314499      -1.24422114       0.41893133
H        1.04577940       0.15811898      -0.69171682
H        0.59326109       0.33214008       1.02803834
H        3.29436916      -0.51973025       0.22040119
H        2.96034341       1.77103749      -0.61133521
H        2.50760839       2.25532190       2.40033458
H        1.29396835       2.49956278       1.11858014
H        2.74741498       3.51585371       1.15377140
H        4.95048638       1.36725513       1.74951372
H        7.22165492       2.12688776      -0.58104765
