15
Properties=species:S:1:pos:R:3 -1488.7996009389624=T 10.262404=T 10.86207=T -8.3632=T -6.3539=T -9.15=T 0.8911=T -0.1494=T 0.735=T 8.69883=T -0.13428=T 5.1598261732=T 5.3529839626=T 0.157765403=T pbc="F F F"
O        3.11682455      -1.01114379      -0.54005003
C        2.37917888       0.03712681       0.10150448
C        3.20035591       1.31300097      -0.01119250
C        3.35070146       1.86908205      -1.44280461
C        3.23902471       3.35024365      -1.17272704
N        2.79605423       3.63502746       0.00501246
N        2.51516128       2.44099870       0.67639163
H        2.59652468      -1.82884859      -0.47513659
H        2.20160223      -0.19754049       1.16802983
H        1.39739861       0.20102059      -0.37963016
H        4.20101060       1.13100861       0.42650512
H        2.52338072       1.52799990      -2.09229532
H        4.28856856       1.57290411      -1.92924976
H        3.43356589       4.14908695      -1.88789163
H        2.73933769       2.54865307       1.66573410
