17
Properties=species:S:1:pos:R:3 -1723.9742383593139=T 11.807136=T 12.79052=T -8.4508=T -6.3738=T -9.062=T 0.9079=T 0.0179=T 1.375=T 8.49829=T -0.79846=T 6.1872237636=T 0.369398932=T pbc="F F F"
C        4.07770865      -0.44927203       2.51614444
C        3.48637349      -0.97698048       1.24202150
C        2.56638010      -1.95273865       1.18043164
O        3.86150457      -0.37024674       0.05042554
C        5.13197798       0.25182614      -0.00219396
C        6.35566278      -0.60399698      -0.20904579
C        5.79060757       0.23055859      -1.34501391
H        5.17084521      -0.57122603       2.53766315
H        3.65395126      -0.98734658       3.37170255
H        3.86187222       0.62358270       2.64021827
H        2.18210251      -2.40228348       2.09305239
H        2.17277967      -2.28822582       0.22204341
H        5.22312343       1.15893066       0.60271148
H        6.19239923      -1.68090313      -0.25953858
H        7.29104379      -0.29510299       0.25949620
H        6.33170461       1.12031286      -1.66648946
H        5.25901296      -0.30230804      -2.13319889
