17
Properties=species:S:1:pos:R:3 -1706.255791510733=T 12.146267=T 13.88147=T -9.8165=T -7.5258=T -9.869=T 0.9481=T -0.0448=T 2.312=T 9.75261=T -1.90214=T 4.4144347398=T 11.0190325752=T 0.457198736=T pbc="F F F"
C        0.34481859      -0.31963687       1.44668253
C        1.62232424      -0.45953824       0.61725709
C        2.05961529       0.86495241       0.01183318
O        3.25342884       0.65525977      -0.74438043
C        3.70954598       1.87012387      -1.33774938
C        4.92473352       1.63477458      -2.10509209
C        5.93717956       1.47791066      -2.75365991
H        0.04634066      -1.28622103       1.87487086
H       -0.49449708       0.04564556       0.83538418
H        0.48123885       0.38496573       2.28123079
H        1.47280118      -1.18518876      -0.19756769
H        2.44309386      -0.84823431       1.24024781
H        2.24322495       1.61401248       0.81061005
H        1.26201597       1.27287416      -0.64413820
H        3.90962669       2.63099657      -0.55489779
H        2.92857810       2.29110186      -2.00459927
H        6.83128079       1.32952156      -3.32408172
