10
Properties=species:S:1:pos:R:3 -1179.7196131698038=T 9.115888=T 9.09442=T -10.0049=T -8.0641=T -10.431=T -0.9273=T -2.7075=T -1.272=T 9.69538=T 1.84313=T 3.52988142=T 6.1654146262=T 0.296127409=T pbc="F F F"
C        1.07900820      -0.04836798       0.05753941
C        2.39879995       0.01304528      -0.12863880
O        3.18868110      -1.09902362      -0.42454343
C        4.45860706      -0.57934673      -0.52990776
N        4.63511169       0.68187515      -0.35359052
C        3.32574353       1.19636719      -0.07636549
O        3.03724165       2.35359366       0.15233577
H        0.55304222       0.87775397       0.28439643
H        0.52292992      -0.98146440      -0.00958100
H        5.22417467      -1.31956251      -0.76240461
