17
Properties=species:S:1:pos:R:3 -1616.7498363476784=T 10.868449=T 12.28506=T -9.4328=T -7.1107=T -10.694=T 0.8949=T -0.1172=T 2.787=T 10.05192=T -2.53503=T 8.5434289104=T 10.7453458788=T 0.163840351=T pbc="F F F"
N        1.77583765      -0.45943166       1.17116266
C        2.13428413       0.24904220      -0.06551938
C        3.16448145       1.31343881       0.24189223
O        3.40358713       2.29496252      -0.78876303
C        2.78871565       2.72227514       0.45611217
C        3.60638176       3.65687460       1.30924846
N        3.50560415       5.02585024       0.78394339
H        1.22464798      -1.29116646       0.95273561
H        1.18442818       0.13454840       1.75740121
H        1.28953834       0.72186678      -0.60368088
H        2.58676960      -0.48150154      -0.75542054
H        4.07054527       0.94322216       0.73924722
H        1.73221268       3.00158167       0.34314522
H        4.63834772       3.25847404       1.37219826
H        3.18714532       3.64990151       2.32963973
H        3.94963458       5.06335141      -0.13771029
H        4.02749841       5.66930018       1.38224798
