13
Properties=species:S:1:pos:R:3 -1372.831488969094=T 10.008531=T 10.2745=T -8.2968=T -6.4034=T -8.964=T 1.2405=T -0.4683=T 0.287=T 8.48761=T 0.38372=T 4.3690062694=T 5.5867843628=T 0.165821122=T pbc="F F F"
N        1.08136411      -0.11253212      -0.08649688
N        2.46761553      -0.05306140       0.13076966
C        3.29631764      -1.19274295       0.14070339
C        4.57578702      -0.84825870       0.37392627
C        4.64519274       0.64689680       0.53810202
C        3.19579561       1.11384313       0.36581066
O        2.71807494       2.24096919       0.41146118
H        0.86990356       0.50402605      -0.88009680
H        0.62506128       0.31891276       0.72602880
H        2.84012359      -2.16399685      -0.03019944
H        5.41813338      -1.53010126       0.43337366
H        5.01690353       0.96824139       1.52381069
H        5.27820708       1.14482396      -0.21349320
