11
Properties=species:S:1:pos:R:3 -1134.9217004547675=T 9.464319=T 10.49371=T -10.4229=T -8.4129=T -10.93=T 0.2999=T -1.4323=T -0.631=T 10.77311=T 1.2778=T 5.221422418=T 6.370586659=T 0.306230257=T pbc="F F F"
O        0.93332946       0.09914855      -0.26715315
S        2.38685050      -0.00063552      -0.17175557
O        3.19609265      -0.11010367      -1.38152691
O        2.76796599      -1.29518787       0.83187280
C        3.36005319      -0.86785021       2.06553505
C        3.50099985       0.62434662       2.05374649
C        3.04163965       1.20707140       0.94967608
H        4.34182038      -1.36034649       2.16570095
H        2.71574243      -1.19868911       2.89796737
H        3.94551050       1.14979609       2.89896419
H        3.00822541       2.25518023       0.66643270
