13
Properties=species:S:1:pos:R:3 -1413.7007860946896=T 10.293319=T 10.5842=T -8.6925=T -6.6392=T -9.117=T 0.8699=T -0.7151=T 0.904=T 8.74152=T -0.37739=T 5.7470734636=T 0.232422781=T pbc="F F F"
O        0.90821713      -0.21707728      -0.19535768
C        2.32342221      -0.01043668       0.01315566
C        3.07279107      -1.21884063      -0.47397930
C        3.80279942      -0.85492407      -1.53428877
O        3.72355918       0.49314069      -1.85369769
C        2.91062136       1.07674661      -0.88256576
C        2.72764471       2.39923685      -0.82714274
H        0.46857534       0.64274065      -0.06090702
H        2.51125011       0.21521474       1.07911805
H        2.98139673      -2.21795369      -0.06140181
H        4.45343747      -1.42705083      -2.19090673
H        3.17408677       3.06808617      -1.56090218
H        2.11817850       2.83007745      -0.03454403
