18
Properties=species:S:1:pos:R:3 -1733.56785409096=T 11.332192=T 12.65665=T -9.3349=T -7.1714=T -10.763=T 0.945=T 0.0151=T 2.906=T 10.16181=T -2.5786=T 8.5431065468=T 13.3518911582=T 0.131428458=T pbc="F F F"
C        1.43639860      -0.38992943      -0.03792676
O        2.84417440      -0.21831715      -0.09344029
C        3.21268895       1.15254984       0.04620377
C        4.72174384       1.27073386       0.01832610
C        5.45238589       0.57877695       1.14754086
C        5.39655761       1.43899597      -1.29742592
N        5.16672887       2.61560269      -0.42229895
H        1.23580915      -1.46354880      -0.14456845
H        0.92738676       0.15567711      -0.85553964
H        1.02141892      -0.03848216       0.92624401
H        2.82314560       1.55479675       1.00574405
H        2.78212821       1.76297042      -0.77064887
H        6.54217330       0.66586270       1.02795601
H        5.19297474      -0.48904823       1.17575872
H        5.17424889       1.01937504       2.11828314
H        4.80529142       1.43197781      -2.21642017
H        6.41254930       1.04853492      -1.39846340
H        6.03947554       2.84763172       0.06461577
