16
Properties=species:S:1:pos:R:3 -1536.885789925485=T 10.689447=T 11.76135=T -8.9608=T -6.8583=T -10.595=T 0.9696=T 0.0107=T 0.361=T 10.12597=T 0.1698=T 5.6260755262=T 13.109845689=T 0.229483303=T pbc="F F F"
C        0.01638072       1.67212033       1.08243731
C        0.82621067       0.42423281       0.72448505
C        2.16117715       0.78663606       0.09952438
O        2.86281936      -0.44696308      -0.20652402
C        4.07064212      -0.31023588      -0.78755434
N        4.58401648       0.83499792      -1.05950638
O        5.86386387       0.65057196      -1.66978670
H       -0.94785413       1.39768175       1.53112934
H       -0.19299611       2.28496027       0.19275526
H        0.55166823       2.30573863       1.80557258
H        0.26110389      -0.20696262       0.02063703
H        1.00512643      -0.18441131       1.62487247
H        2.78585739       1.38836431       0.78048762
H        2.03721164       1.36290658      -0.83228036
H        4.55289634      -1.27083662      -0.99704904
H        6.13596596       1.57220889      -1.82158019
