13
Properties=species:S:1:pos:R:3 -1359.9566694027837=T 9.379352=T 9.98965=T -9.0736=T -7.0978=T -10.432=T 0.974=T -0.0548=T 0.504=T 9.74061=T 0.16847=T 4.3716099754=T 12.2215727892=T 0.148778141=T pbc="F F F"
O        1.62082512       0.25888348       1.29973466
C        2.44624993       0.04480811       0.42366749
C        3.01962970      -1.31415380      -0.01945108
C        3.93770869      -0.97647677      -1.17054871
C        5.10902063      -0.08942867      -0.93063833
N        3.84114691       0.50006396      -1.45758463
N        3.05664731       0.99573331      -0.36707481
H        2.18096690      -1.95189043      -0.33203785
H        3.51259945      -1.80666645       0.82972001
H        3.92580707      -1.60500769      -2.06251413
H        5.36668916       0.16267554       0.09986937
H        5.92955296      -0.08321316      -1.64941748
H        2.65405616       1.91998257      -0.49865451
