16
Properties=species:S:1:pos:R:3 -1582.6942402958593=T 10.651757=T 11.98709=T -9.2497=T -7.1303=T -10.773=T 1.011=T 0.1293=T 2.991=T 10.08237=T -2.68293=T 8.768165934=T 11.0237688404=T 0.200097164=T pbc="F F F"
C        0.77027248       0.18564933      -0.01854587
C        0.42632461      -0.13743707       1.41796181
C       -0.55572828       0.65128499       2.17575463
O       -0.90346661      -0.64669858       1.64580109
N        1.98114016       1.00796137      -0.08309743
C        3.24154955       0.25624397      -0.18572979
C        2.68481444       0.97091118      -1.37018587
H        0.87732313      -0.76407151      -0.58709487
H       -0.06215519       0.74819418      -0.46986661
H        1.20860799      -0.65848499       1.98522959
H       -1.04521780       1.50013293       1.68673644
H       -0.48487973       0.70367473       3.26694907
H        3.18365474      -0.83767759      -0.19555915
H        4.08681234       0.67408646       0.36481117
H        3.11718896       1.91886139      -1.69660543
H        2.25726922       0.35285920      -2.16699878
