15
Properties=species:S:1:pos:R:3 -1565.6021973402446=T 11.145569=T 12.55861=T -9.9673=T -7.6803=T -9.81=T 0.878=T -0.0668=T 2.174=T 9.36627=T -1.83214=T 4.3593849558=T 10.2794684838=T 0.407623798=T pbc="F F F"
C        1.10862703       0.16767362      -0.01147886
C        2.62659883      -0.09570204      -0.09610349
C        2.96565814      -0.88219406      -1.28257820
C        3.22703189      -1.51721984      -2.28335940
C        3.39719190       1.22078583      -0.08233524
C        3.79903900       1.85348501       1.18399077
O        4.76535304       1.17989912       0.35113073
H        0.86741819       0.71883694       0.90790553
H        0.55435162      -0.77919670      -0.01079302
H        0.76879295       0.75806626      -0.87375425
H        2.94520983      -0.66489050       0.79527127
H        3.47078171      -2.08365136      -3.15870696
H        3.22084967       1.86371094      -0.95438621
H        3.57047135       1.34956381       2.13003837
H        3.90556485       2.94193298       1.23860894
