19
Properties=species:S:1:pos:R:3 -1786.0438322560974=T 11.343945=T 12.83243=T -9.2417=T -6.9103=T -10.628=T 0.9817=T 0.012=T 3.118=T 9.99037=T -2.88693=T 8.765996179=T 11.3874817714=T 0.174878786=T pbc="F F F"
C        0.95160474      -0.08808040       0.00929964
C        2.48059881      -0.03686600       0.01633810
C        3.03874835       1.38980156       0.00230089
C        4.56832679       1.44706269       0.00466943
C        5.12340378       2.87099658       0.00684204
N        6.59469315       2.85782621      -0.04002628
H        0.58277244      -1.12390572       0.02100405
H        0.54122918       0.40194151      -0.88711324
H        0.53194879       0.42550885       0.88810081
H        2.87250534      -0.58731761      -0.85627501
H        2.86338155      -0.56611938       0.90620016
H        2.64628797       1.93979278       0.87675157
H        2.65392298       1.91955907      -0.88790503
H        4.97147386       0.91598730      -0.87362849
H        4.95091011       0.91106828       0.89294392
H        4.70606381       3.41810493       0.87849184
H        4.76717101       3.39852480      -0.89406609
H        6.96063371       2.44329555       0.82199524
H        6.95167364       3.81582901      -0.06479353
