12
Properties=species:S:1:pos:R:3 -1256.9504695292255=T 9.748358=T 10.38598=T -9.3056=T -7.2789=T -10.452=T 0.9787=T -0.1515=T 0.009=T 10.05722=T 0.67868=T 4.3178620444=T 10.7502929202=T 0.742520519=T pbc="F F F"
O        2.73592228      -1.74731032       0.04061542
N        3.65835037      -0.72747994      -0.20770818
C        3.44640489       0.44170688       0.44022936
O        2.39870511       0.62436031       1.07630887
C        4.52644668       1.51473477       0.28894722
C        5.75367438       1.08527334      -0.36510847
C        6.76334412       0.69271436      -0.91264028
H        2.09358054      -1.25238002       0.61985003
H        4.58336988      -1.06335337      -0.47007960
H        4.73738015       1.88821163       1.30314045
H        4.07026513       2.35459330      -0.26035199
H        7.66349645       0.36919907      -1.39509282
