18
Properties=species:S:1:pos:R:3 -1768.2880358732214=T 10.984392=T 12.16998=T -9.7966=T -7.5713=T -10.917=T 0.9671=T 0.0698=T 3.006=T 10.5495=T -2.66122=T 8.8038367062=T 10.69255264=T 0.187547415=T pbc="F F F"
C        2.48117759      -1.36537131      -0.65818068
C        1.90986049      -0.03873155      -0.14752449
C        2.96047434       0.97304657       0.29377628
C        3.79073312       0.58018087       1.50169766
C        3.63154842       1.79386289      -0.78725845
C        2.61832046       2.43843367       0.13653672
H        1.67604972      -2.03745218      -0.98815381
H        3.05103786      -1.89309016       0.12031183
H        3.15508857      -1.20217725      -1.51275714
H        1.22461151      -0.23134560       0.69709379
H        1.29476522       0.41776730      -0.94069036
H        4.50493129       1.37397742       1.76372901
H        4.37068641      -0.33739486       1.31906564
H        3.14853920       0.40494310       2.37979240
H        3.33558819       1.61794114      -1.82315206
H        4.68259661       2.05732150      -0.65786277
H        2.98621098       3.13454552       0.89226646
H        1.64193003       2.69619292      -0.27757003
