12
Properties=species:S:1:pos:R:3 -1323.2375120039621=T 10.050395=T 10.39089=T -8.1604=T -6.166=T -8.22=T 1.0493=T -0.1459=T 0.567=T 7.66222=T -0.10482=T 4.5936813=T 6.3865312586=T 0.352229359=T pbc="F F F"
C        2.53486345       0.01108254       0.80809374
N        1.60030164       0.33693962      -0.35655656
C        2.35433688       1.55009977      -0.54599485
C        2.62637171       2.76162166      -1.10733843
O        3.62224540       3.35104788      -0.32509650
C        3.94057657       2.49579682       0.71603303
C        3.18224941       1.37460154       0.59095093
H        3.19537169      -0.84803356       0.62182114
H        1.98293059      -0.13076781       1.74733934
H        1.63570097      -0.33163418      -1.13088308
H        2.30589059       3.34129970      -1.96400648
H        4.70462111       2.86412602       1.39125773
