16
Properties=species:S:1:pos:R:3 -1562.0495236077754=T 9.866147=T 10.75598=T -9.3423=T -7.0785=T -10.631=T 0.8065=T -0.2033=T 2.863=T 9.96656=T -2.59556=T 8.3050534268=T 11.4969862066=T 0.126960487=T pbc="F F F"
N        0.99311310       0.00317979       0.08772087
C        2.45287310      -0.00530326      -0.01761117
C        2.94481790      -1.33633938      -0.60867363
O        2.63117083      -1.46423972      -1.99775728
C        3.16050387      -0.36871218      -2.71809015
O        2.62193892       0.87496490      -2.31502588
C        2.93504258       1.12400248      -0.94236970
H        0.66861302       0.88517934       0.48946856
H        0.67500994      -0.74303630       0.70948821
H        2.98007182       0.12859253       0.95398425
H        2.47475841      -2.19440457      -0.10604141
H        4.04253273      -1.40734643      -0.46274814
H        4.26922252      -0.34811565      -2.59845359
H        2.88292158      -0.51236585      -3.76923940
H        4.03201983       1.23984508      -0.82174077
H        2.45781986       2.08126923      -0.68590076
