14
Properties=species:S:1:pos:R:3 -1355.688247656295=T 8.574839=T 9.04151=T -8.6933=T -6.4961=T -10.093=T 0.9967=T 0.0136=T 3.369=T 9.38951=T -3.1213=T 8.3136704538=T 11.6849241854=T 0.148067882=T pbc="F F F"
C       -0.81111223      -1.05447391       0.05123213
C       -1.23493830       0.44287861       0.07385468
C        0.07901194       1.21523838      -0.15623330
N        1.09385762       0.28956337       0.36556438
C        0.71126197      -1.01692178      -0.18803859
H       -1.03500490      -1.53092353       1.01522932
H       -1.32756482      -1.62735966      -0.73090109
H       -1.66593155       0.70452047       1.04996001
H       -1.98271871       0.68170140      -0.69469610
H        0.20418982       1.42194737      -1.24208359
H        0.11366754       2.17605132       0.37821555
H        2.03720673       0.56064674       0.07981184
H        0.91886348      -1.09821246      -1.27762295
H        1.24828142      -1.83027631       0.32190770
