15
Properties=species:S:1:pos:R:3 -1566.9569313933598=T 11.766004=T 11.67777=T -8.0558=T -6.1853=T -8.578=T 1.1659=T -0.342=T 0.661=T 7.87856=T -0.08194=T 4.8292423014=T 5.173377843=T 0.285327017=T pbc="F F F"
C        0.88516634      -0.03262236       0.32332152
C        2.19135156      -0.00770753      -0.00025178
C        2.96653920       1.22577860      -0.39069955
C        4.39224285       1.17839281       0.18102102
N        5.10338571      -0.06771491      -0.11622363
C        4.36405308      -1.11399446      -0.19661920
N        2.98141379      -1.16271433      -0.06416634
H        0.30715834       0.88899537       0.33263462
H        0.36798776      -0.96126256       0.56950468
H        2.43036706       2.12715180      -0.06430055
H        3.03262683       1.25824372      -1.49244661
H        4.36186419       1.30296682       1.27918658
H        4.98433823       2.01833377      -0.21221166
H        4.82592597      -2.09164115      -0.37690332
H        2.52850909      -2.07071561      -0.01403579
