19
Properties=species:S:1:pos:R:3 -1825.4888436884933=T 10.984712=T 12.09647=T -9.7584=T -7.5064=T -11.789=T 0.7944=T -0.2366=T 2.463=T 11.50288=T -2.14759=T 9.442091837=T 10.9456824576=T 0.089065713=T pbc="F F F"
C        0.97910573      -0.03050274       0.03201860
C        2.51564838      -0.00626047       0.02351702
C        3.06083101      -0.64992888       1.30767871
C        3.00744837      -0.78039548      -1.22301228
O        4.42409502      -0.89430839      -1.33286185
C        2.95119375       1.47149216      -0.07196392
O        4.37734787       1.67467685      -0.16908530
H        0.56289405       0.41093025      -0.88698192
H        0.57705442       0.53142819       0.88882571
H        0.60756451      -1.06318625       0.10742102
H        2.74784273      -0.08386374       2.19918608
H        4.15824169      -0.71682250       1.29178173
H        2.68357987      -1.67803717       1.41387071
H        2.57809996      -0.29789571      -2.12578802
H        2.61793021      -1.81122427      -1.18802861
H        4.77199253       0.01251083      -1.20353657
H        2.54571292       2.03737825       0.78729024
H        2.54002901       1.91942637      -0.99023191
H        4.76420796       1.47098270       0.70082054
