18
Properties=species:S:1:pos:R:3 -1802.3650515931479=T 11.452098=T 12.52476=T -8.793=T -6.7219=T -10.256=T 0.9135=T 0.0219=T 3.07=T 9.58316=T -2.76152=T 8.322684236=T 11.0257278192=T 0.089826431=T pbc="F F F"
C        0.97571834       0.01975022      -0.00925648
C        2.50033055       0.00313625       0.02081864
C        3.12545294      -1.14000782       0.89487576
C        3.93163136      -0.26542347       1.87021917
C        4.61298159       0.76626032       0.93459360
C        3.13333473       1.19542187       0.77663712
N        2.87783995       0.77894931       2.22131857
H        0.57875547      -0.90695391      -0.45002371
H        0.59690115       0.86250916      -0.60819640
H        0.57908515       0.11389754       1.01173122
H        2.89445459      -0.03019482      -1.00795867
H        3.76161072      -1.82814228       0.32085946
H        2.35545797      -1.72029801       1.42199393
H        4.45444477      -0.76036276       2.69921500
H        5.16925487       0.41153540       0.04955252
H        5.20434063       1.50624177       1.49266980
H        2.82928032       2.20706867       0.47516882
H        3.34974488       1.48024258       2.80917165
