16
Properties=species:S:1:pos:R:3 -1621.1068623867525=T 10.760184=T 11.52937=T -8.2385=T -6.0794=T -8.922=T 0.9113=T -0.0739=T 1.292=T 8.51593=T -0.74049=T 5.8848219096=T 0.23686617=T pbc="F F F"
N        2.94710432      -0.98615827      -0.56084292
C        2.43838121       0.21988862       0.10619839
C        3.48122501       1.33903522       0.02679175
C        3.71689300       1.86463237      -1.40937148
C        3.01158958       3.20026506      -1.36778212
C        2.65731092       3.45729424      -0.10253898
O        2.97416837       2.47758710       0.80976162
H        2.19494072      -1.66742253      -0.67545078
H        3.65517003      -1.43816658       0.02374011
H        2.16058051       0.08165658       1.16829984
H        1.53486149       0.55753259      -0.42676373
H        4.41342023       1.01761968       0.51806915
H        3.30395738       1.15585006      -2.14363469
H        4.78937744       1.97738054      -1.64167494
H        2.85123076       3.85973525      -2.21608009
H        2.16376903       4.32771008       0.32678887
