12
Properties=species:S:1:pos:R:3 -1141.6927280998627=T 7.475526=T 7.99776=T -9.5298=T -7.1719=T -10.827=T 0.8389=T -0.2094=T 3.084=T 10.22769=T -2.85427=T 8.6057690712=T 14.8540063454=T 0.145748827=T pbc="F F F"
N        0.92881885       0.00723844       0.10315198
C        2.38633458       0.02641615      -0.00527048
C        3.10834880       1.02744443       0.91886769
O        3.94500814      -0.02648015       1.47969393
C        3.12942824      -1.04103579       0.82311842
H        0.55283438      -0.78433380      -0.42698136
H        0.53837785       0.84484786      -0.33850303
H        2.77179204       0.07822797      -1.04084641
H        2.43643200       1.46417800       1.67850959
H        3.71232754       1.81572788       0.44319237
H        3.74911061      -1.76947528       0.27738609
H        2.46715696      -1.55952572       1.53847121
