15
Properties=species:S:1:pos:R:3 -1530.171093419949=T 10.307387=T 11.2789=T -9.6834=T -7.4581=T -9.697=T 1.3493=T -0.0604=T 1.156=T 9.18404=T -0.59359=T 6.6670619822=T 0.460183313=T pbc="F F F"
O        1.39365728      -0.17063330       0.56514281
C        2.64847642      -0.14864529      -0.09722153
C        2.48176045      -0.35110202      -1.57755033
C        1.30728861      -0.49688630      -2.19757473
C        3.39168997       1.15843636       0.18811178
C        2.67482387       2.42785488       0.35692554
O        3.17107718       1.69454935       1.51150641
H        1.56114027       0.22873753       1.44249748
H        3.29416294      -0.96889770       0.28896600
H        3.41714373      -0.38556704      -2.14590644
H        0.37289653      -0.47906477      -1.63574291
H        1.25595091      -0.64544098      -3.27647467
H        4.43739351       1.18385815      -0.14234548
H        1.58631269       2.43672325       0.25208138
H        3.19459566       3.36991786       0.16015470
