15
Properties=species:S:1:pos:R:3 -1454.4599377742759=T 10.81754=T 11.34895=T -8.4315=T -6.4626=T -9.876=T 1.1646=T -0.0372=T 0.651=T 9.2909=T -0.04952=T 5.6298447006=T 12.3966534198=T 0.271200424=T pbc="F F F"
C        1.13544312       0.21634127      -0.24374599
C        2.55781591      -0.18806063       0.05113783
C        3.47550796      -0.62881999      -1.04908725
N        3.70299070       0.64998460      -0.37742278
C        3.51197433       1.84534242      -1.06533109
N        3.76872307       1.94521100      -2.32393914
O        3.64134969       3.30644107      -2.73761423
H        0.76173811       0.93363103       0.50153284
H        0.48034784      -0.66694591      -0.21286591
H        1.04712397       0.67371335      -1.23896348
H        2.72259234      -0.62658970       1.04076339
H        3.09212874      -0.58373193      -2.07196561
H        4.23206938      -1.39348857      -0.86036395
H        3.22000057       2.70945371      -0.45476531
H        3.89144428       3.24471828      -3.67595932
