17
Properties=species:S:1:pos:R:3 -1599.841486548105=T 11.64143=T 13.0007=T -10.0389=T -8.1234=T -10.222=T 0.6765=T -0.2766=T -0.014=T 9.87375=T 0.41348=T 5.2387060664=T 10.5381528742=T 0.234084972=T pbc="F F F"
C        0.95472220      -0.01567399      -0.04072460
C        2.48066281       0.00659126      -0.06429397
C        3.10733459      -0.79032566      -1.20529169
S        3.12842811       1.72586077      -0.01069840
C        2.57718634       2.49455833      -1.54716851
O        2.44945581       2.42282779       1.09614904
O        4.59923365       1.64874803      -0.06242904
H        0.55965284       0.61406445       0.76597614
H        0.60794445      -1.04618714       0.12244660
H        0.53087547       0.32364856      -0.99751882
H        2.87414568      -0.35362122       0.90248594
H        2.72257800      -0.46598529      -2.18354680
H        2.85165267      -1.85345661      -1.09043785
H        4.20023695      -0.69544051      -1.20416762
H        3.01049594       1.96420283      -2.40179221
H        2.97014195       3.51711608      -1.49800981
H        1.48262255       2.51186231      -1.57970840
