17
Properties=species:S:1:pos:R:3 -1732.019817500363=T 11.693483=T 12.55222=T -9.308=T -7.1238=T -9.287=T 0.879=T -0.0817=T 1.456=T 8.75166=T -0.86922=T 6.590909781=T 0.490317226=T pbc="F F F"
O        0.96759416      -0.32744418       0.01828453
C        2.37863232      -0.17704816       0.04575909
C        2.97263566       1.03523860       0.84797828
C        4.07880158       0.09399113       1.39055570
C        3.19833352      -1.11998012       0.99673098
C        2.89372419      -0.21959196      -1.36369830
C        2.14207489      -0.37713857      -2.45785089
H        0.65372018      -0.29670887       0.93726034
H        2.27245091       1.33474511       1.64293997
H        3.26466542       1.92683530       0.27668908
H        4.99867959       0.14895107       0.79222158
H        4.34803754       0.19547388       2.44950630
H        3.67560034      -2.00149163       0.54833068
H        2.56352658      -1.44612929       1.83506743
H        3.97940146      -0.11019475      -1.45699173
H        1.05987908      -0.48804140      -2.38467636
H        2.59471259      -0.39661616      -3.44983669
