16
Properties=species:S:1:pos:R:3 -1622.7273810614615=T 12.877645=T 12.67013=T -8.1255=T -6.334=T -8.843=T 0.688=T -0.8649=T -0.526=T 8.08377=T 1.18876=T 3.5491240472=T 4.3898979104=T 0.528419909=T pbc="F F F"
C        1.05417655       0.05525996       0.00125380
N        2.47620269      -0.18045612       0.20330883
C        2.94401577      -1.55395668       0.08144909
C        3.35514603       0.85375439       0.16672998
C        3.08251393       2.18724919       0.01914194
C        4.16970528       3.13827664       0.06919152
O        4.06510364       4.35926465      -0.05408588
H        0.72695154       0.91108004       0.60661285
H        0.49372888      -0.83180560       0.32102175
H        0.81692247       0.26178597      -1.05733592
H        2.38287271      -2.20774651       0.76523731
H        4.00673923      -1.60419089       0.34667115
H        2.82283402      -1.93812933      -0.94679370
H        4.40087427       0.55310159       0.29294985
H        2.07733725       2.57639944      -0.14675639
H        5.18102574       2.67107328       0.23205383
