19
Properties=species:S:1:pos:R:3 -1769.071385295119=T 11.396937=T 12.42017=T -9.2997=T -7.1288=T -10.461=T 0.72=T -0.2882=T 2.849=T 9.92848=T -2.57434=T 8.3853343618=T 11.6009856634=T 0.083857718=T pbc="F F F"
N        0.98786805      -0.02397672      -0.27032784
C        2.45223830      -0.01860992      -0.12048957
C        2.95788585       1.41918091       0.09281624
N        2.31250780       2.09257251       1.24175413
C        4.48189945       1.48928186       0.23466534
C        5.02438878       2.92325316       0.22956831
O        4.58284479       3.70169520       1.33667113
H        0.61953882      -0.97009245      -0.15969572
H        0.73146112       0.27348928      -1.21539202
H        2.99417735      -0.47012729      -0.97584918
H        2.70449198      -0.61728471       0.77156378
H        2.67589521       2.00578630      -0.80401813
H        2.55957542       1.58039868       2.09718116
H        1.29858645       1.97184382       1.13776563
H        4.94707069       0.93193745      -0.59620014
H        4.78868336       0.98710261       1.17041433
H        4.74471510       3.40499374      -0.73207312
H        6.12521641       2.90410929       0.27152467
H        3.61967509       3.49408626       1.42662099
