15
Properties=species:S:1:pos:R:3 -1475.0160431931004=T 10.411931=T 10.71816=T -8.6421=T -6.654=T -9.717=T 0.9001=T -0.3158=T 0.778=T 9.1265=T -0.17171=T 4.6246654014=T 6.037250298=T 0.164935459=T pbc="F F F"
O        0.98863037       0.01026980       0.27633228
N        2.31849855       0.14458424      -0.26570830
C        2.99130564       1.32985679       0.26786202
C        4.41758527       1.31996803      -0.28416315
C        5.12188479       0.00814842       0.08778431
N        4.30086836      -1.19904307      -0.03648845
C        3.03186556      -1.05793690      -0.14810159
H        0.42112612       0.23138452      -0.48588985
H        2.43806793       2.22159738      -0.05987601
H        2.98871652       1.30751594       1.37313742
H        4.97107739       2.18794189       0.10494571
H        4.37506964       1.42283282      -1.37968859
H        5.48732461       0.04705014       1.12926032
H        6.01851638      -0.13040978      -0.53749795
H        2.38409285      -1.93962022      -0.21797815
