17
Properties=species:S:1:pos:R:3 -1753.9412090821068=T 12.347006=T 13.41398=T -9.0777=T -7.1655=T -9.929=T 0.0694=T -1.5417=T -0.384=T 9.20794=T 1.05288=T 3.5624153464=T 5.314783876=T 0.388272248=T pbc="F F F"
C        1.88096892      -0.92430726      -0.90248502
C        2.98777021      -0.44623525       0.05213585
C        3.04943207       1.04204511       0.15973974
C        4.12269213       1.80920891      -0.10275968
C        4.07993359       3.29287290       0.03327837
C        5.36504804       4.02512725      -0.30470591
O        3.07131620       3.89424925       0.39603718
H        1.83518442      -2.02195877      -0.92455348
H        2.06313621      -0.56812761      -1.92632414
H        0.89570555      -0.55047629      -0.58723375
H        3.96453742      -0.84575795      -0.26287227
H        2.78505507      -0.85796207       1.05756150
H        2.13548856       1.56230855       0.47381276
H        5.06476773       1.35365650      -0.42592291
H        5.66150487       3.81278752      -1.34382813
H        6.18511668       3.66785990       0.33771796
H        5.23100232       5.10321931      -0.16887807
