16
Properties=species:S:1:pos:R:3 -1640.6184459551673=T 12.181948=T 14.13025=T -9.394=T -7.092=T -9.293=T 0.8658=T -0.0171=T 2.405=T 8.85086=T -1.93849=T 4.1516464128=T 9.8937232406=T 0.500067939=T pbc="F F F"
C        0.88271718      -0.11385856      -0.02407648
C        2.33661209      -0.03651278      -0.01811804
C        3.55140251       0.02022050      -0.00887433
C        5.00878236       0.11017073       0.00090330
C        5.51733377       1.54114207       0.09849632
C        5.74752104       2.19460082       1.41172459
N        6.89281574       1.69068353       0.61513135
H        0.43109659       0.88956293      -0.00716065
H        0.50926962      -0.66192867       0.85412793
H        0.51353799      -0.63074257      -0.92270870
H        5.41818798      -0.35467906      -0.91297589
H        5.42473560      -0.46173049       0.84698641
H        5.20344154       2.19325085      -0.72309927
H        5.55284045       1.63374849       2.32931537
H        5.58677875       3.27269161       1.48643673
H        7.35648678       2.47436061       0.14523136
