18
Properties=species:S:1:pos:R:3 -1736.1224142267909=T 11.22207=T 12.39766=T -8.8177=T -6.7615=T -10.276=T 0.8566=T -0.1127=T 2.768=T 9.60347=T -2.41974=T 7.9653193882=T 11.5642610102=T 0.137847871=T pbc="F F F"
C        1.22044083       0.00302789      -0.09080491
N        2.67943259       0.05426970      -0.13669749
C        3.33531232      -0.57781682      -1.28649219
C        3.34475362       0.91592855      -1.13552550
C        2.56006958       1.78145128      -2.10048672
C        4.60597583       1.56795342      -0.58555050
O        5.57072287       1.87084203      -1.60233178
H        0.84479243       0.86624098       0.47776630
H        0.92515865      -0.90926865       0.44779441
H        0.72316593      -0.00921536      -1.07888189
H        2.69481997      -0.98655523      -2.07710386
H        4.22226802      -1.17837382      -1.05786203
H        1.75117829       1.23788342      -2.60320216
H        3.24023643       2.16883217      -2.87191918
H        2.12489795       2.64850859      -1.57825967
H        5.02668520       0.91765532       0.20080720
H        4.35655688       2.53664752      -0.12378024
H        5.84717262       1.02519901      -1.99859982
