16
Properties=species:S:1:pos:R:3 -1504.1315259673788=T 10.276724=T 11.2112=T -8.9482=T -6.8205=T -10.409=T 0.9573=T -0.0086=T 3.263=T 9.76295=T -2.92738=T 8.4680206252=T 11.878912681=T 0.179242465=T pbc="F F F"
C        1.16960044      -0.09110865       0.01166903
N        2.62828255      -0.07777131      -0.06098714
C        3.20597422      -0.62196954      -1.29656689
C        3.20871378       0.85157465      -1.03243969
C        4.46170097       1.59306366      -0.62411247
N        5.15572844       2.09949334      -1.81862532
H        0.83532745       0.69549953       0.70380029
H        0.83584185      -1.06138950       0.40791090
H        0.67758180       0.07376993      -0.96884023
H        2.51724557      -0.99184759      -2.06414504
H        4.12077055      -1.20799630      -1.16853129
H        2.50792187       1.43921612      -1.63969572
H        5.06406118       0.92366603       0.02069594
H        4.17706684       2.46149046      -0.00683974
H        5.53319388       1.31417624      -2.35596071
H        5.95745861       2.66899293      -1.54064192
