12
Properties=species:S:1:pos:R:3 -1330.7451669636566=T 9.019374=T 9.51392=T -9.1946=T -7.1506=T -10.684=T -0.1662=T -2.0731=T -1.352=T 10.14257=T 1.68353=T 2.945597395=T 12.0933588666=T 0.156394738=T pbc="F F F"
O        1.23860284      -0.09912166       0.75653382
C        2.33253789      -0.01077178       0.24492725
C        3.10206189       1.26283797      -0.07806469
C        4.41848896       0.80474500      -0.73396114
N        4.33728414      -0.65526415      -0.72624672
C        3.20148887      -1.21569169      -0.20031804
O        2.92889955      -2.40167454      -0.10156848
H        3.26568380       1.82898029       0.84947241
H        2.49500962       1.89710209      -0.73845332
H        4.51428829       1.18093656      -1.76431044
H        5.29922030       1.14540640      -0.16816352
H        5.07728384      -1.24407448      -1.10002711
