10
Properties=species:S:1:pos:R:3 -1173.8464812367308=T 12.975749=T 12.73474=T -9.2013=T -7.3672=T -8.873=T -0.3857=T -1.9465=T -0.861=T 8.23003=T 1.37636=T 3.8620771098=T 10.2070358626=T 0.460391543=T pbc="F F F"
C        0.85227383       0.07199783      -0.00364130
C        2.06948515       0.09076791      -0.00078892
C        3.47477462       0.08442075       0.00296396
C        4.36717607       1.14950925       0.00438048
C        5.70487962       0.68826644       0.00831801
N        5.89955484      -0.62857882       0.00975830
S        4.41298514      -1.39135572       0.00604606
H       -0.21847838       0.06118234      -0.00621251
H        4.06243224       2.19379263       0.00292550
H        6.58321687       1.33674739       0.01015043
