15
Properties=species:S:1:pos:R:3 -1547.168500997018=T 9.846715=T 10.96096=T -9.6952=T -7.4765=T -10.774=T 0.9279=T -0.8698=T 0.058=T 9.79393=T 0.66234=T 3.7536265556=T 7.9925343152=T 0.133571255=T pbc="F F F"
C        0.84278996       0.02520282      -0.14353586
C        2.07517983       0.28233605       0.70037896
O        2.26399227      -0.28572685       1.76618737
C        3.05464983       1.30160550       0.14103239
C        2.64786506       2.79193764       0.33334088
O        3.84975195       3.06654275       1.09305872
C        4.27091337       1.66876179       1.00459110
H        0.38600471       0.96851259      -0.47903028
H        0.11494680      -0.56767238       0.42076751
H        1.13384529      -0.52674962      -1.05113773
H        3.28432788       1.05769088      -0.90651581
H        1.73580753       2.95328842       0.93467555
H        2.59220275       3.39354306      -0.58845804
H        5.25450761       1.57361686       0.51953741
H        4.27774516       1.17677047       1.98910781
