19
Properties=species:S:1:pos:R:3 -1872.9905735718407=T 11.668475=T 13.12085=T -8.8944=T -6.7597=T -10.437=T 0.8405=T -0.0927=T 2.96=T 10.10494=T -2.84231=T 8.1621595618=T 10.2478396552=T 0.281072129=T pbc="F F F"
C        1.01832182       0.08982142      -0.06142691
C        2.52923325       0.01177344      -0.01960464
C        3.36894836      -0.73410182      -1.06993745
C        2.76815385      -1.46496672      -2.25122781
C        3.44373262       0.77512930      -0.95552388
C        2.91164565       1.68805659      -2.03158933
O        4.62962707       1.36630678      -0.42744629
H        0.65641954       0.97188596       0.48822101
H        0.56510363      -0.80028500       0.40158883
H        0.62686037       0.15980152      -1.08479759
H        2.92436854      -0.07669459       0.99912833
H        4.24251977      -1.24497152      -0.64912595
H        1.87855594      -0.96147608      -2.65207722
H        2.46663363      -2.48601414      -1.97063450
H        3.49605793      -1.54674656      -3.07272648
H        1.99922837       1.29730206      -2.49546082
H        3.66886292       1.81912247      -2.81839432
H        2.68658236       2.67718443      -1.60671204
H        4.95651438       0.79878244       0.29161706
