14
Properties=species:S:1:pos:R:3 -1463.4021369895634=T 11.319844=T 11.24804=T -8.4578=T -6.4626=T -8.912=T 0.2254=T -1.3975=T -0.455=T 8.42249=T 0.96715=T 4.6822940942=T 0.438409491=T pbc="F F F"
C        0.95157427      -0.05763432      -0.10487791
C        2.41116682       0.05546945       0.20473519
C        3.15936352       1.17541156       0.11011463
C        4.62959602       1.33878625       0.41122598
O        4.91153694       2.74804669       0.12956115
N        3.73590670       3.37695872      -0.28967316
C        2.76746087       2.51327635      -0.30129755
H        0.77413487      -0.81069139      -0.88963385
H        0.51432168       0.89009745      -0.44327414
H        0.38656434      -0.39353392       0.78004064
H        2.90276599      -0.86437954       0.53812629
H        5.28183366       0.73155907      -0.23491611
H        4.88469700       1.15154490       1.46577226
H        1.77970734       2.85141871      -0.60789343
