16
Properties=species:S:1:pos:R:3 -1579.7527780696494=T 10.481788=T 11.48566=T -9.0465=T -6.9371=T -10.048=T 0.8999=T -0.0352=T 2.6=T 9.58988=T -2.28353=T 7.678143015=T 11.5665175554=T 0.121065783=T pbc="F F F"
C       -1.72882041       0.65507387       0.28307305
N       -1.70314327      -0.76407901      -0.27944333
C       -0.22669863      -0.74035770       0.09778347
C        1.11873859      -1.08804518      -0.50027844
O        1.95390053      -0.03176229       0.09356892
C        1.13319515       1.07617802       0.63070647
C       -0.20549881       0.77110186      -0.00309484
H       -2.40393993       1.35151969      -0.23103279
H       -1.98092752       0.60723454       1.35282280
H       -1.76574266      -0.67206882      -1.30325233
H       -0.20763478      -1.04107475       1.16123653
H        1.55158724      -2.04850962      -0.18645436
H        1.13498449      -1.01352949      -1.60248871
H        1.12052508       1.02089053       1.73259718
H        1.61459590       2.01154888       0.31217379
H       -0.12627097       1.02149946      -1.07733738
