16
Properties=species:S:1:pos:R:3 -1641.587154688637=T 11.548558=T 12.50898=T -9.3511=T -7.2643=T -9.633=T 0.7062=T -0.2866=T 0.488=T 9.68861=T 0.18037=T 4.3411714124=T 6.649927117=T 0.475962591=T pbc="F F F"
N        1.19518896      -0.32922319       0.57644208
C        2.38989906      -0.20166361      -0.08740562
O        2.84550351      -1.10093216      -0.78965821
C        3.09548866       1.14146496       0.10315101
C        4.62505927       0.99474915       0.13235169
C        5.32570565       2.31908735       0.07755501
C        6.14808011       2.79858170       1.01784002
H        0.78143708       0.44003611       1.08974390
H        0.63455470      -1.15612839       0.39515103
H        2.73981010       1.65375251       1.01079543
H        2.80212039       1.77349288      -0.75335991
H        4.91141795       0.37218090      -0.73131326
H        4.92917500       0.44338800       1.03601333
H        5.13078267       2.92747486      -0.81468200
H        6.37086315       2.22701472       1.92292801
H        6.63211374       3.77093421       0.91368749
