12
Properties=species:S:1:pos:R:3 -1276.0297194398172=T 8.091445=T 8.97569=T -10.2701=T -8.1319=T -11.4=T 0.7389=T -0.2056=T 0.139=T 10.444=T 0.4855=T 4.3774125202=T 11.755546611=T 0.135321982=T pbc="F F F"
C        1.02769823      -0.09423046       0.11126641
C        2.49410645       0.19228023      -0.09726226
C        3.19794108       1.17017891       0.85891748
C        4.00622177      -0.05312648       1.28256181
O        4.89313537      -0.31372790       2.04853105
O        3.35491997      -0.91810011       0.41767917
H        0.72093434      -0.98394535      -0.45490710
H        0.42675285       0.75783862      -0.23850943
H        0.80779829      -0.26462774       1.17464535
H        2.73996168       0.34788124      -1.15759951
H        2.57396437       1.58791573       1.65933377
H        3.79866560       1.96485331       0.40057327
