16
Properties=species:S:1:pos:R:3 -1639.0599233475002=T 12.20868=T 12.50642=T -8.3439=T -6.4151=T -8.812=T 1.2145=T -0.4196=T 0.067=T 8.28701=T 0.57588=T 4.2617831766=T 5.0005909534=T 0.402648384=T pbc="F F F"
C        0.90599826      -0.38469720       0.03168602
C        2.30164251       0.09569908       0.27792801
C        2.77021501       1.36107038       0.20383500
C        1.95367516       2.56999044      -0.15083022
N        4.13703484       1.59329003       0.48002639
C        4.83439031       2.77663776       0.47692614
O        6.03101368       2.85437164       0.73746651
H        0.88799662      -1.15114006      -0.76028822
H        0.21706660       0.41461775      -0.26824332
H        0.48726372      -0.86034555       0.93385814
H        3.02142360      -0.68370131       0.55347960
H        0.91815625       2.28855397      -0.36303919
H        2.35380329       3.07892313      -1.04080335
H        1.94225517       3.30196724       0.67121519
H        4.70756711       0.78120724       0.72143328
H        4.21542787       3.65925546       0.21656002
