16
Properties=species:S:1:pos:R:3 -1668.213595155016=T 12.020695=T 12.42053=T -8.3432=T -6.3565=T -8.288=T 0.7135=T -0.8724=T 0.64=T 7.82291=T -0.0948=T 4.6192100174=T 7.5029631956=T 0.468690379=T pbc="F F F"
C        2.92390932      -1.22991628      -0.44279172
N        2.31097414      -0.01318337       0.08784577
C        3.19661577       1.15366675       0.02559061
C        2.73082091       2.33865710       0.83573206
C        2.76282258       3.44779986       0.06232239
C        3.18013091       3.07933388      -1.29714769
C        3.39972522       1.74567848      -1.35302087
H        2.25223332      -2.08067251      -0.26474575
H        3.91679875      -1.46587007      -0.00257510
H        3.05414231      -1.13846965      -1.53134331
H        2.05142983      -0.16683586       1.06441519
H        4.22909677       0.90832587       0.39812601
H        2.46273296       2.28069264       1.88995175
H        2.52755658       4.46231443       0.38408528
H        3.29349106       3.78444189      -2.12078905
H        3.72124956       1.17433682      -2.22132557
