18
Properties=species:S:1:pos:R:3 -1823.768319823707=T 11.62562=T 13.0069=T -11.3736=T -9.034=T -11.797=T 0.7436=T -0.2734=T 1.479=T 11.32838=T -1.08159=T 5.3681226532=T 10.3433708682=T 0.173836362=T pbc="F F F"
C        3.40950816      -0.73019344      -0.65077874
C        2.71847751      -0.01099356       0.50969682
C        3.14066138       1.45398051       0.71293615
C        2.30815652       2.12741203       1.80834130
C        4.65768371       1.60245180       1.00131065
C        5.08442593       0.90665397       2.21348111
N        5.40719712       0.34284743       3.18278212
H        2.98585496      -1.73414229      -0.79239305
H        4.48752672      -0.86060532      -0.47613391
H        3.28321198      -0.18086453      -1.59679418
H        2.89111038      -0.56522694       1.44808932
H        1.62858584      -0.02187349       0.34532867
H        2.97199257       1.99258846      -0.23708073
H        2.46353957       1.63480730       2.78015248
H        1.23668638       2.07027958       1.57018637
H        2.57231884       3.18914552       1.92189458
H        4.91480833       2.66787583       1.11135542
H        5.25411411       1.21782714       0.15997562
