9
Properties=species:S:1:pos:R:3 -1081.2465402496516=T 10.935339=T 10.54107=T -9.7977=T -7.7759=T -9.262=T -0.9133=T -2.6062=T -0.84=T 8.84046=T 1.30093=T 3.9200529634=T 11.431323221=T 0.395104466=T pbc="F F F"
C        0.93066811      -0.04203094       0.00000000
C        2.14682277       0.01427062       0.00000000
C        3.55629088       0.02308622       0.00000000
C        4.30446146       1.15638944       0.00000000
C        5.72219045       1.13485940       0.00000000
N        6.89306447       1.15191618       0.00000000
H       -0.13994341      -0.08009524       0.00000000
H        4.05897586      -0.94840623       0.00000000
H        3.82855941       2.13902055       0.00000000
