17
Properties=species:S:1:pos:R:3 -1723.7319610629079=T 12.832387=T 13.26257=T -8.7546=T -6.7133=T -8.567=T 0.5948=T -0.952=T 0.316=T 8.00532=T 0.20824=T 5.260663987=T 0.747216108=T pbc="F F F"
C        2.66581195      -0.85866249       0.19907714
O        4.00323875      -0.39316356       0.10161065
C        4.05996099       1.02368516       0.06992279
C        5.48282881       1.51245614      -0.03675466
C        6.52250244       0.65624013      -0.09831378
C        5.70340415       2.95842433      -0.07222156
C        4.76013640       3.91739681      -0.01507449
H        2.70682351      -1.95483580       0.21815867
H        2.05844981      -0.53451842      -0.66743735
H        2.17649304      -0.49904149       1.12436306
H        3.59375894       1.44432062       0.98605152
H        3.47323869       1.40952172      -0.79071910
H        6.36874045      -0.42104227      -0.07217253
H        7.54393634       1.03209575      -0.17573627
H        6.75299815       3.26018827      -0.15335938
H        3.69513516       3.69270486       0.06670963
H        5.03378242       4.97196023      -0.04868435
