13
Properties=species:S:1:pos:R:3 -1378.7153382494118=T 10.810678=T 11.96017=T -9.7213=T -7.5874=T -10.274=T 0.9815=T -0.5801=T 1.071=T 9.88476=T -0.75818=T 4.4032512026=T 11.0637915212=T 0.628413867=T pbc="F F F"
C        1.00763328      -0.08404289      -0.27995658
N        2.42952029      -0.00185367       0.06178651
C        2.93825241       1.37998510      -0.00314707
C        2.39904899       2.21149774       1.08282045
C        1.94195014       2.92254771       1.94998540
C        4.41353601       1.36167086       0.04160752
N        5.57815237       1.33405047       0.02393434
H        0.70928236      -1.13983764      -0.28017802
H        0.75353729       0.35753428      -1.26503054
H        0.41853739       0.43276842       0.49015967
H        2.98054918      -0.56903035      -0.58668812
H        2.67146531       1.88724161      -0.96166018
H        1.54334498       3.54111837       2.72844662
