12
Properties=species:S:1:pos:R:3 -1250.8961461990884=T 8.878408=T 9.27975=T -10.0444=T -7.806=T -10.145=T 0.3319=T -1.6141=T -0.507=T 9.67199=T 1.11702=T 3.680214445=T 6.7764176342=T 0.280240055=T pbc="F F F"
O        1.41198532      -0.23729058       0.25327103
C        2.68553610       0.29272264      -0.04257177
C        3.14969524      -0.08468040      -1.42832334
C        4.37548851      -0.53544263      -1.71416755
C        2.66891787       1.81190515       0.08630360
O        1.65398147       2.41228520       0.39431971
H        0.85916377       0.54247227       0.48817619
H        3.44097908      -0.06041136       0.69313551
H        2.40096123       0.05403148      -2.21414120
H        5.12201534      -0.69784224      -0.93277327
H        4.67108131      -0.76754242      -2.73766992
H        3.63115474       2.33505289      -0.11933899
