13
Properties=species:S:1:pos:R:3 -1331.9409861620593=T 10.488529=T 10.4769=T -8.6794=T -6.7633=T -9.78=T 0.0125=T -1.6359=T -0.258=T 9.15401=T 0.695=T 4.5209139166=T 5.522770391=T 0.294684767=T pbc="F F F"
C        1.07446173      -0.02972991       0.39797741
C        2.36351026       0.00967491       0.04662095
C        3.27001733       1.20709262      -0.08044016
O        4.60354337       0.67458380       0.01945885
N        4.47416509      -0.62571008      -0.61999957
C        3.22111676      -1.16694035      -0.28534691
N        3.00072066      -2.43095492      -0.33659852
H        0.52696211      -0.97415832       0.42948046
H        0.52098178       0.87200207       0.66092194
H        3.16079713       1.95211884       0.71781210
H        3.13234681       1.69148161      -1.06642633
H        5.28208853      -1.18219797      -0.33241757
H        2.00825844      -2.62904231      -0.16189264
