14
Properties=species:S:1:pos:R:3 -1380.3187583773677=T 9.876256=T 10.04109=T -7.9886=T -6.0387=T -8.82=T 1.4014=T -0.0364=T 0.758=T 8.29076=T -0.15372=T 5.0340671734=T 12.0454754734=T 0.197070283=T pbc="F F F"
C        1.13342371      -0.00742454      -0.05435023
N        2.44557616      -0.11160847       0.56208613
C        3.32043838      -1.19977188       0.06915607
C        4.71634734      -0.68404674       0.44421705
C        4.43093118       0.80063236       0.47280799
N        3.17024552       1.07900303       0.53519030
H        0.54684623      -0.90281538       0.19360932
H        1.19059356       0.08531723      -1.15808686
H        0.62292655       0.87438851       0.35003070
H        3.22048530      -1.29324646      -1.03323767
H        3.05252856      -2.15805628       0.53267817
H        5.50079292      -0.97722119      -0.26562106
H        5.02386965      -1.03102807       1.44750934
H        5.17029494       1.59798789       0.53826076
