15
Properties=species:S:1:pos:R:3 -1530.2661561892376=T 11.691963=T 12.12675=T -8.2407=T -6.2504=T -8.727=T 0.6214=T -0.3869=T 0.414=T 8.25019=T 0.22698=T 4.6981890994=T 5.110578934=T 0.281372362=T pbc="F F F"
C        0.68683443       0.03230041       0.05206391
C        2.15422284       0.00195997       0.35292047
C        3.02963216       0.90445206      -0.11878017
N        4.40323854       0.89469927       0.14127666
C        5.25103452       1.90344884      -0.30644993
N        6.57942327       1.73139522       0.09220253
O        4.86559430       2.87446484      -0.95021871
H        0.35749082      -0.89111233      -0.45192845
H        0.42972325       0.88007456      -0.59823865
H        0.08647106       0.11970330       0.97235491
H        2.51404746      -0.80940017       0.99672607
H        2.73357369       1.73630637      -0.76025534
H        4.76253149       0.20673320       0.79808237
H        6.93269539       0.77934806       0.15607983
H        7.20437677       2.36161640      -0.40405551
