13
Properties=species:S:1:pos:R:3 -1449.0599922164631=T 10.822875=T 11.8633=T -9.4342=T -7.3863=T -10.179=T 0.7853=T -1.0334=T 0.174=T 9.7666=T 0.61918=T 3.7494978218=T 10.5735136814=T 0.841883914=T pbc="F F F"
O        1.51899534      -0.02501206       1.39288387
C        2.38221935      -0.01897430       0.54716128
C        3.18180979       1.09485379      -0.14207231
C        4.13876988      -0.01664635      -0.70741173
C        3.15092818      -1.12419612      -0.18943468
C        4.42312972       0.00974936      -2.12693640
C        4.64380097       0.03206860      -3.32117351
H        3.62217867       1.85936654       0.51156121
H        2.59378799       1.58958830      -0.92911385
H        5.07851191      -0.04196982      -0.13569958
H        2.54984358      -1.56836241      -0.99652111
H        3.56947715      -1.92784963       0.43073025
H        4.83978746       0.05172408      -4.37377342
