15
Properties=species:S:1:pos:R:3 -1625.155603293466=T 11.07037=T 11.88825=T -8.5042=T -6.4758=T -8.286=T 1.0485=T 0.0518=T 0.568=T 7.75981=T -0.0371=T 4.5863909232=T 6.6527911936=T 0.465547711=T pbc="F F F"
C        2.43465279      -0.63199809      -1.39622387
C        2.34752838       0.04042053      -0.01763749
C        2.95102085       1.41499451       0.01669528
C        2.29892991       2.60230051       0.21151165
O        3.17270301       3.66179944       0.16863695
C        4.41321685       3.12664512      -0.06139947
C        4.33660173       1.76783138      -0.16302429
H        1.99241758      -1.63829661      -1.37028741
H        3.47896430      -0.73129233      -1.72638643
H        1.90122232      -0.04111590      -2.15465407
H        2.85188987      -0.59562182       0.72932981
H        1.29390792       0.10333474       0.29628716
H        1.25981668       2.85763303       0.39143071
H        5.22925883       3.83850776      -0.12045145
H        5.16832895       1.09174773      -0.34082708
