17
Properties=species:S:1:pos:R:3 -1615.9051068921456=T 10.628841=T 11.7349=T -9.2655=T -6.9864=T -10.743=T 0.9039=T -0.0909=T 2.669=T 10.14861=T -2.34648=T 8.506493481=T 10.6307952134=T 0.16348355=T pbc="F F F"
N        2.61076109      -1.52191030      -0.38568108
C        1.98043499      -0.19282297      -0.44236376
C        2.93499711       0.88020432       0.06442579
C        3.64507347       0.59922339       1.37449955
N        2.69051519       0.15426161       2.40356838
C        3.54111409       1.84191988      -0.87011995
O        2.40231290       2.22850383      -0.07090089
H        2.05626392      -2.18278231      -0.93295368
H        2.56958396      -1.84969456       0.58439533
H        1.04930719      -0.11554246       0.15046379
H        1.72273176       0.03821108      -1.48626182
H        4.22531132       1.50182992       1.64583635
H        4.36251013      -0.21856299       1.19883612
H        2.06576449       0.92886458       2.64445179
H        3.19352373      -0.08227335       3.26109389
H        3.34508839       1.73638878      -1.94270777
H        4.48211630       2.33983157      -0.60847205
