14
Properties=species:S:1:pos:R:3 -1512.3554284956306=T 10.401197=T 11.29373=T -8.6832=T -6.5944=T -8.262=T 1.5086=T -0.1297=T 0.27=T 7.79675=T 0.39075=T 4.1713353896=T 11.512844016=T 0.264597387=T pbc="F F F"
C        0.92755283      -0.18160036      -0.00537984
C        2.39480187       0.03679908      -0.00294458
C        3.20640209       1.13926531      -0.00706360
C        2.83968710       2.59067337      -0.01552803
N        4.54133255       0.71986105      -0.00293958
C        4.47821007      -0.57744440       0.00326430
O        3.20965844      -1.08555169       0.00377009
H        0.41029211       0.78566788       0.00256699
H        0.60159689      -0.75158397       0.87795430
H        0.60169146      -0.73642234      -0.89850777
H        3.75628160       3.19238460      -0.00167938
H        2.23745440       2.86719618       0.86243155
H        2.26685221       2.86430084      -0.91394847
H        5.29107640      -1.29710556       0.00858402
