10
Properties=species:S:1:pos:R:3 -1156.5512001412308=T 9.369386=T 9.86168=T -9.6889=T -7.7218=T -10.971=T -1.0848=T -2.9622=T -1.851=T 10.28767=T 2.2913=T 3.037595007=T 6.1267805886=T 0.212693403=T pbc="F F F"
N        1.17175247      -0.20298774       0.52337696
C        2.12468347       0.00596638      -0.41884368
O        2.53989833      -0.80991058      -1.23431739
C        2.66938854       1.46021553      -0.36136100
O        2.25066186       2.26981528       0.46012552
C        3.68646258       1.77819884      -1.33039444
C        4.54476179       2.09197531      -2.13131123
H        0.91807983       0.56137221       1.14391651
H        0.72927840      -1.11155693       0.60227961
H        5.30061273       2.36407169      -2.84114088
