10
Properties=species:S:1:pos:R:3 -1089.7179930318912=T 9.111196=T 9.87304=T -10.0561=T -7.992=T -10.458=T -0.1582=T -2.0714=T -0.73=T 9.82617=T 1.3088=T 3.5370230136=T 10.5794526108=T 0.862123665=T pbc="F F F"
O        0.95925437      -0.05884990      -0.00915021
C        2.38824871      -0.00977300      -0.00070601
C        2.84664924       1.36744341      -0.00040727
C        3.25664193       2.51643236      -0.00011804
C        3.80099529       3.84718216       0.00028337
O        3.12947270       4.87054749      -0.00270712
H        0.70135530      -0.99718880      -0.00935992
H        2.81974397      -0.51411951      -0.88757313
H        2.80907877      -0.51084277       0.89314654
H        4.91735972       3.88098858       0.00377179
