17
Properties=species:S:1:pos:R:3 -1774.7897630687503=T 11.968455=T 12.88598=T -8.9555=T -6.8557=T -9.087=T 1.0208=T 0.1438=T 1.355=T 8.53152=T -0.6875=T 6.1968078814=T 0.32740849=T pbc="F F F"
C        2.11936351      -0.19466642      -0.04938592
C        0.75541499      -0.80589876       0.19301465
C       -0.39502720      -1.44374969      -0.54703480
C       -1.56927407      -0.50576024      -0.23725523
C       -1.45258179       0.73710926       0.28535642
C       -0.12476517       1.46077459       0.54583321
C        0.87009227       0.63980096      -0.23798844
H        2.68075924      -0.38718065      -0.96616529
H        2.74251980      -0.10360373       0.84285148
H        0.57420685      -0.86412037       1.27354257
H       -0.63540176      -2.46526460      -0.20362010
H       -0.22276438      -1.51007727      -1.63575488
H       -2.57581025      -0.89685839      -0.41556271
H       -2.37023922       1.29310113       0.50129357
H        0.09954091       1.49185322       1.62662602
H       -0.20150059       2.50981003       0.20994485
H        0.65753686       0.73162094      -1.31044542
