13
Properties=species:S:1:pos:R:3 -1287.2195087312007=T 9.429636=T 9.94373=T -9.2158=T -7.0986=T -10.303=T 1.4424=T -0.2675=T 0.481=T 9.81531=T 0.1236=T 5.4514536438=T 6.36730103=T 0.229315926=T pbc="F F F"
O        0.94210321       1.23084978      -0.96273617
N        2.34607968       1.22811347      -1.17669842
C        2.97497062       1.03047845      -0.07486232
C        4.45155367       1.04692688      -0.02281340
C        5.27848254       1.33644355      -1.25191453
C        5.19630056       2.37471681      -0.16681167
H        0.60423910       1.35709035      -1.86764174
H        2.41985015       0.86821292       0.86056632
H        4.87481669       0.35613759       0.70988488
H        4.72768172       1.52141926      -2.17309624
H        6.20998342       0.78231958      -1.36676754
H        6.06338075       2.53643646       0.47453637
H        4.58364789       3.25698491      -0.35482553
