20
Properties=species:S:1:pos:R:3 -1877.0570059506533=T 12.154167=T 13.4819=T -8.5373=T -6.4316=T -9.961=T 0.9635=T 0.0722=T 3.174=T 9.20189=T -2.8957=T 8.0560151472=T 10.8082067808=T 0.130052068=T pbc="F F F"
C        0.98501710      -0.42943386       0.01995872
N        2.38883322      -0.16019986       0.32576827
C        2.71826239       1.26790246       0.40099757
C        2.18303941       1.89928176       1.68848666
C        4.23372311       1.41929765       0.33734517
O        4.70156135       0.88226651      -0.89972357
C        6.11714235       0.92240147      -0.99610751
H        0.85930242      -1.50226928      -0.18043392
H        0.59991186       0.13513821      -0.85647359
H        0.34724410      -0.18424274       0.88226509
H        2.97027392      -0.55962779      -0.41534120
H        2.29387503       1.82449783      -0.46707054
H        2.59432087       1.38278311       2.56850508
H        1.08809057       1.83371078       1.73764912
H        2.45129957       2.96449332       1.74142222
H        4.69689898       0.87470093       1.18548570
H        4.51004687       2.48928594       0.41770761
H        6.38949729       0.48394976      -1.96450249
H        6.59588748       0.33961193      -0.18658042
H        6.49654211       1.96107187      -0.95137797
