16
Properties=species:S:1:pos:R:3 -1611.8041252622747=T 11.064594=T 12.05812=T -9.1089=T -6.9834=T -10.34=T 0.8764=T -0.9354=T -0.008=T 9.86229=T 0.64684=T 3.7073797776=T 11.310808829=T 0.238735453=T pbc="F F F"
C        1.72378036      -0.50639907       0.24522759
N        1.67506546       0.95653437       0.13145806
C        2.90571988       1.58685156       0.52340259
C        3.98041821       1.72034791      -0.49551939
C        3.19788304       2.96831250      -0.08649527
C        3.85876434       3.96994359       0.77491927
O        4.74072953       3.71759469       1.58577304
H        0.74360505      -0.92116861      -0.02564269
H        1.99354834      -0.87299593       1.25555360
H        2.46449390      -0.90036382      -0.46532874
H        0.91113440       1.31789276       0.70746541
H        3.25122462       1.49142381       1.56407927
H        3.77374677       1.34489508      -1.49753748
H        5.01420676       1.68603576      -0.15083745
H        2.45077234       3.33539704      -0.79097324
H        3.48608701       5.01872836       0.65198542
