17
Properties=species:S:1:pos:R:3 -1612.944056814494=T 11.326042=T 12.0424=T -8.019=T -6.0905=T -9.412=T 0.8713=T -0.0538=T 0.852=T 8.71212=T -0.18946=T 5.6615851166=T 0.144748554=T pbc="F F F"
C        2.33719831      -1.15197567       1.53694165
C        1.96996962      -0.28750123       0.32124362
C        2.59712046       1.08134503       0.35024718
N        2.18305537       2.01433094       1.27801622
C        0.82932198       2.04685949       1.81340750
N        3.58226695       1.27491775      -0.47864590
O        4.09457067       2.61787134      -0.30687235
H        1.86830835      -2.14323438       1.46081166
H        2.01231720      -0.69578537       2.48256753
H        3.42570144      -1.29032410       1.59161877
H        0.87458399      -0.19342601       0.23747639
H        2.31975249      -0.77067000      -0.60091521
H        2.61915177       2.92234813       1.12671505
H        0.58055906       1.09803492       2.30803012
H        0.05699989       2.25267933       1.04993969
H        0.77554237       2.83511366       2.57515834
H        4.78534009       2.64004615      -0.98923026
