15
Properties=species:S:1:pos:R:3 -1522.1704511749244=T 12.095906=T 12.13043=T -7.9495=T -6.115=T -8.86=T 1.125=T -0.4209=T -0.073=T 8.22221=T 0.69919=T 4.1743978438=T 4.6428045532=T 0.373191397=T pbc="F F F"
C        1.72176797      -0.91472211       1.21127204
N        2.75287062      -0.37813224       0.33734733
C        3.25718078       0.87832971       0.49135465
C        4.38590544       1.38919308      -0.06772848
C        4.72171001       2.79919058       0.17646796
N        5.89852861       3.23247880      -0.42739327
O        4.06212503       3.56306065       0.89305018
H        1.16595176      -1.70560978       0.69038324
H        1.01347246      -0.11503515       1.46388673
H        2.12725694      -1.32821567       2.15137696
H        3.34140093      -1.05780807      -0.13800043
H        2.65711102       1.55212621       1.11181221
H        5.04460381       0.77217713      -0.68483662
H        6.25771273       2.72992474      -1.23344516
H        6.03022189       4.24010214      -0.42953735
