17
Properties=species:S:1:pos:R:3 -1779.5353785380953=T 14.114819=T 15.45999=T -8.2547=T -6.1984=T -8.075=T 1.0429=T -0.4072=T 0.798=T 7.59565=T -0.1704=T 3.8527781598=T 10.625848172=T 0.630582723=T pbc="F F F"
C        0.94480914      -0.22527789      -0.00013161
C        2.44232067      -0.09003403       0.00037403
C        3.13271771       1.07708605       0.00038348
C        2.47316206       2.43831521       0.00078222
C        4.55914133       1.07629528       0.00066896
C        5.77763230       1.14364458       0.00050254
C        7.23098852       1.19090473       0.00013646
H        0.64905176      -1.28193496      -0.01952971
H        0.48386056       0.26065848      -0.87501255
H        0.48709112       0.22638512       0.89486444
H        3.02647728      -1.01362569       0.00167452
H        1.37893625       2.36461981      -0.00134552
H        2.78581138       3.01770244      -0.88107556
H        2.78191012       3.01461481       0.88606991
H        7.59633814       2.22881067      -0.01145783
H        7.64665110       0.68035765      -0.88231570
H        7.64655056       0.70029773       0.89389191
