17
Properties=species:S:1:pos:R:3 -1652.3835814111064=T 12.31819=T 13.13767=T -8.5507=T -6.6053=T -10.129=T 1.2999=T -0.2326=T 0.899=T 9.55031=T -0.23223=T 4.8941117766=T 6.693694175=T 0.397549468=T pbc="F F F"
C        1.19042995      -0.15834290       0.95732908
C        2.68880159      -0.08126054       0.62422216
C        3.04185979       1.18213453      -0.09586133
N        3.53270378       1.15619409      -1.27850329
N        3.78169151       2.49522894      -1.77878158
C        3.53767485       2.51348449      -3.24756457
C        4.92321203       2.44843263      -2.73231506
H        0.96532754      -1.06982548       1.52785342
H        0.58601230      -0.17148690       0.03941148
H        0.86873460       0.70373778       1.56017748
H        2.99847900      -0.93753779       0.00820057
H        3.26957337      -0.12049710       1.56239374
H        2.85547402       2.14637647       0.40725177
H        3.11965566       3.45255115      -3.61252113
H        3.12171426       1.59848204      -3.67318882
H        5.43774288       1.48909507      -2.81066711
H        5.55396287       3.33800350      -2.70956679
