20
Properties=species:S:1:pos:R:3 -1933.1287166437864=T 12.591367=T 14.09788=T -8.685=T -6.7131=T -10.278=T 0.9452=T 0.06=T 3.127=T 9.5951=T -2.79522=T 8.2891708202=T 11.1843059132=T 0.140235418=T pbc="F F F"
C        2.98000268      -1.13885898      -0.60244817
C        2.37483972       0.12443172       0.01760358
C        3.35086122       1.28069183       0.04433518
C        3.52170368       2.28373581      -1.06233483
C        2.73216148       2.28882343      -2.34898621
N        2.82667770       2.64473819       0.18113140
C        3.54926231       3.52567600       1.09300446
H        2.26615896      -1.97428967      -0.57911816
H        3.88309521      -1.45808631      -0.05982843
H        3.26699180      -0.96937619      -1.65097962
H        2.05229141      -0.08431862       1.05208271
H        1.46766621       0.42415215      -0.52741573
H        4.27542625       1.07032019       0.60406280
H        4.54526448       2.67440596      -1.15762731
H        1.72469550       1.87911051      -2.20412305
H        3.24206433       1.69652924      -3.12396082
H        2.62214068       3.31573264      -2.72892763
H        3.17179358       3.38030502       2.11620131
H        3.36897012       4.57302910       0.80815450
H        4.64506266       3.34932799       1.09758403
