16
Properties=species:S:1:pos:R:3 -1650.9090571891484=T 14.101978=T 15.20387=T -8.5148=T -6.4688=T -8.223=T 0.7693=T -0.7175=T 0.695=T 7.82087=T -0.08668=T 3.8667389834=T 5.7600052034=T 0.449984446=T pbc="F F F"
C        0.92102415      -0.04879075       0.02848918
C        2.37331129       0.00888455       0.01717048
C        3.59198719       0.07037700       0.00073564
C        5.00915815       0.08087792      -0.01486802
C        5.77608183       1.16476929      -0.26173654
C        7.27394444       1.14719418      -0.26029052
N        7.79305437       1.71285774      -1.51808172
H        0.48171939       0.95962889       0.05113448
H        0.55084996      -0.59680009       0.90832794
H        0.53694168      -0.56087526      -0.86734257
H        5.50340375      -0.87584059       0.19700661
H        5.30321128       2.12414192      -0.49210096
H        7.62839271       0.12183438      -0.03012630
H        7.63629902       1.79822676       0.55573073
H        7.57168383       1.08442867      -2.29455710
H        8.81210698       1.78333539      -1.47642133
