21
Properties=species:S:1:pos:R:3 -2011.6628548901508=T 12.663175=T 14.68379=T -9.5238=T -7.332=T -11.516=T 0.9874=T 0.0736=T 3.114=T 10.79793=T -2.89791=T 9.330752409=T 11.6285601498=T 0.235459052=T pbc="F F F"
C        7.79898289       0.30133455       2.27577873
C        6.67535653       1.22571579       1.80292284
C        5.38019257       0.47382809       1.48301270
C        4.26230081       1.40037478       1.03030668
O        3.10432147       0.62745475       0.72727773
C        2.01247151       1.44006774       0.30195001
C        0.82320498       0.54575662       0.00582558
H        8.71806731       0.86356567       2.49434334
H        8.04140127      -0.45245214       1.51108756
H        7.51056836      -0.23756938       3.19128759
H        7.00727616       1.77989683       0.90778691
H        6.47628810       1.98748986       2.57668961
H        5.04032168      -0.08595345       2.37031941
H        5.56388467      -0.27195513       0.69167806
H        4.57739718       1.97713402       0.13496999
H        4.02676443       2.13840835       1.82618814
H        2.30256921       2.01780689      -0.59990538
H        1.76126422       2.17588394       1.09361365
H        1.06315030      -0.16724026      -0.79489305
H       -0.03710210       1.15053909      -0.31341442
H        0.53510847      -0.02328660       0.90049433
