15
Properties=species:S:1:pos:R:3 -1505.2973549946662=T 10.638207=T 11.77749=T -10.1262=T -7.9249=T -10.144=T 1.1006=T 0.0357=T 2.151=T 9.86765=T -1.74428=T 4.437954884=T 10.758575185=T 0.322986068=T pbc="F F F"
C        0.98718393      -0.11861793      -0.22064072
O        2.37749753      -0.01490192       0.10886436
C        2.85522158       1.31798536       0.00910341
O        2.30204796       2.19127010       0.98310935
C        2.66294669       1.87198736       2.33686032
C        4.32386939       1.26310292       0.05247821
C        5.53585617       1.28589018       0.06499184
H        0.73464915      -1.18321061      -0.15497119
H        0.79849206       0.23836150      -1.24891444
H        0.35944695       0.45534192       0.47876835
H        2.52927824       1.76628774      -0.94987356
H        2.12830849       2.59310690       2.96546830
H        3.74860708       1.97923161       2.49218804
H        2.35735130       0.84869718       2.60319247
H        6.60686346       1.29254769       0.07999526
