9
Properties=species:S:1:pos:R:3 -1051.3932373926548=T 8.007309=T 7.99308=T -9.8751=T -7.7607=T -9.916=T -1.5908=T -3.5544=T -2.058=T 9.47914=T 2.34269=T 2.7246419444=T 6.9941370502=T 0.659451444=T pbc="F F F"
O        0.86058015      -0.02789600       0.00514643
C        2.07701539       0.03413641       0.00157888
C        2.97988125       1.21922877      -0.00180314
C        4.22790031       0.72106481      -0.00514163
N        4.28515376      -0.74830830      -0.00436749
C        3.06566156      -1.14820351      -0.00054283
H        2.65483918       2.25448455      -0.00152000
H        5.17667354       1.25458892      -0.00826815
H        2.77315486      -2.20009565       0.00097793
