11
Properties=species:S:1:pos:R:3 -1300.353896463529=T 13.911741=T 13.6006=T -8.3587=T -6.5759=T -8.=T 0.1425=T -1.3638=T -0.311=T 7.48985=T 0.89183=T 3.775869644=T 6.0996524518=T 0.358963715=T pbc="F F F"
C        0.83238091       0.12564173      -0.00453314
C        2.05026386       0.10202852      -0.00090193
C        3.45593781       0.06842300       0.00351194
C        4.35453389       1.12614160       0.00514132
C        5.70911662       0.70907349       0.00964905
C        5.84724695      -0.66132598       0.01133938
S        4.31781399      -1.46323154       0.00717741
H       -0.23782972       0.14916765      -0.00775106
H        4.02769549       2.16440230       0.00325919
H        6.55522690       1.39461486       0.01156354
H        6.76098330      -1.24908563       0.01455431
