15
Properties=species:S:1:pos:R:3 -1497.0823058400092=T 11.149513=T 11.50866=T -8.5081=T -6.6058=T -9.431=T -0.3154=T -2.1718=T -1.276=T 8.60117=T 1.69342=T 2.9912738374=T 6.6211871622=T 0.176720881=T pbc="F F F"
C        2.09650662      -0.54784661       0.45479034
N        1.97099105       0.88660178       0.31275919
C        3.06042677       1.70090963       0.16763274
C        2.66745373       3.12469369      -0.12823520
O        1.50494189       3.46797384      -0.29076012
N        4.26521392       1.22706073       0.25425347
C        5.44479552       2.06472167       0.19821260
H        1.10581291      -0.97464841       0.64882742
H        2.76490996      -0.78506591       1.29470737
H        2.52535986      -1.01656988      -0.44724296
H        1.07941154       1.30980675       0.06815191
H        3.49450517       3.85821482      -0.22953167
H        6.10410540       1.79066061       1.03733215
H        5.29438662       3.15697942       0.24212814
H        6.01035903       1.83687790      -0.72113537
