14
Properties=species:S:1:pos:R:3 -1515.127446724678=T 10.576038=T 11.16421=T -9.3493=T -7.2987=T -9.7=T 1.0358=T -0.5452=T 0.584=T 9.61815=T 0.14243=T 4.3884348756=T 6.3291629364=T 0.265852763=T pbc="F F F"
C        1.02330395      -0.00806263       0.19026216
C        2.34516831      -0.01485572      -0.00228062
C        3.21241669       1.23725490      -0.08654609
N        4.47423292       0.72521456      -0.60077842
C        4.57610597      -0.64336129      -0.68390742
O        5.56094457      -1.27018597      -1.05259515
C        3.23346545      -1.21555154      -0.21444828
H        0.45047788      -0.93532242       0.23648739
H        0.46849988       0.92468741       0.31015553
H        3.34017450       1.70357125       0.90735431
H        2.77085754       1.98927188      -0.76000418
H        5.27947325       1.31065911      -0.80275563
H        2.84487686      -1.92826930      -0.95449265
H        3.41195222      -1.77972025       0.71547905
