16
Properties=species:S:1:pos:R:3 -1633.6096301657244=T 11.733429=T 11.9591=T -8.5067=T -6.6753=T -9.098=T 1.0267=T -0.6016=T 0.02=T 8.47543=T 0.60211=T 4.1901440658=T 5.116840227=T 0.383670817=T pbc="F F F"
C        3.82674616      -1.06196894      -1.02477627
N        2.91525231      -0.14297583      -0.34614101
C        1.68846024      -0.64554055       0.06135669
O        1.31862365      -1.80205080      -0.10794987
C        3.31053057       1.19777962      -0.13488534
C        2.34530481       2.11438306       0.57294542
C        4.51240965       1.65060590      -0.54987573
H        4.76504525      -1.15544094      -0.45996368
H        4.04942249      -0.70030069      -2.03858816
H        3.32646945      -2.03382186      -1.07847564
H        1.05673373       0.10802643       0.56527562
H        2.10741485       1.76306428       1.58803969
H        1.39718525       2.22267647       0.02548086
H        2.79982684       3.10759168       0.65845040
H        5.24284006       1.03113631      -1.06382480
H        4.77959468       2.68938587      -0.36772818
