14
Properties=species:S:1:pos:R:3 -1288.5640919519349=T 8.287609=T 8.86558=T -9.2394=T -7.0034=T -10.298=T 0.905=T -0.0863=T 3.238=T 9.59098=T -2.98972=T 8.2058646268=T 13.5980033682=T 0.108163143=T pbc="F F F"
C        1.80181428      -0.41577091       0.67010557
N        3.15691355       0.04452684       0.36553569
C        3.21105540       1.41585754      -0.15433461
C        4.66563167       1.87703508      -0.16907323
O        5.25511137       1.73225431       1.11926960
H        1.83577037      -1.45979267       1.01039207
H        1.10002312      -0.34977709      -0.18594431
H        1.38900686       0.19044484       1.49014913
H        3.58054953      -0.58675956      -0.32080663
H        2.64042185       2.05387599       0.54054112
H        2.75695164       1.52979913      -1.16162851
H        4.72858038       2.93890194      -0.45117669
H        5.23104907       1.29728888      -0.92949934
H        4.85781090       0.90379568       1.46544014
