14
Properties=species:S:1:pos:R:3 -1533.1371007227697=T 11.521791=T 12.51904=T -9.8104=T -7.7313=T -9.718=T 1.0498=T -0.6506=T 0.842=T 9.22937=T -0.28162=T 5.2685494966=T 11.0012281856=T 0.494323079=T pbc="F F F"
C        1.64308709      -0.33841772      -1.20168173
C        2.20418527       0.15888365      -0.09281575
C        3.32076952       1.13662527      -0.05003337
C        3.69183640       2.00735238      -1.21106523
C        2.98706387       2.64047990      -0.01912264
C        3.70777130       3.50609165       0.86819849
N        4.30091082       4.20304973       1.59529671
H        0.81520451      -1.04550049      -1.14417818
H        1.99344869      -0.06794885      -2.20015136
H        1.83111747      -0.16192146       0.88576499
H        4.14092612       0.87004194       0.62192118
H        3.10385819       1.94156425      -2.12599956
H        4.74412178       2.25053400      -1.35161060
H        1.93523897       2.89818575      -0.15546295
