15
Properties=species:S:1:pos:R:3 -1643.8907444712497=T 12.047434=T 12.94287=T -9.296=T -7.0967=T -9.118=T 0.9212=T 0.0114=T 1.289=T 8.59296=T -0.62704=T 4.3460688594=T 10.573464087=T 0.85316305=T pbc="F F F"
C        1.03104157      -0.00062214       0.68340778
C        2.18247742      -0.00031446       0.29640495
C        3.55770679       0.00016504      -0.17925479
C        3.94386430      -1.23669933      -1.05108926
C        4.97173135      -0.66949884      -1.99744998
C        4.97214773       0.67081883      -1.99653811
C        3.94467107       1.23773332      -1.04972255
H        0.01729514      -0.00090865       1.02788206
H        4.22611885      -0.00043484       0.69948310
H        3.06762305      -1.62014392      -1.60267711
H        4.31893532      -2.06684275      -0.43367458
H        5.59745030      -1.29621027      -2.63482884
H        5.59877237       1.29776032      -2.63230936
H        4.32050597       2.06675875      -0.43181702
H        3.06906877       1.62241893      -1.60096630
