14
Properties=species:S:1:pos:R:3 -1467.1403027119927=T 10.933652=T 11.63794=T -9.7016=T -7.4767=T -9.472=T 1.1507=T -0.0647=T 1.268=T 9.0373=T -0.67089=T 4.332938742=T 10.6552700498=T 0.688577919=T pbc="F F F"
C        0.99108587      -0.05588779       0.28622900
C        2.50586333      -0.00857863      -0.03070049
C        2.81124007      -0.77496126      -1.30400260
C        3.42322046      -0.29580738      -2.38996665
C        2.99607580       1.36826434      -0.04741499
C        3.38360813       2.51867842      -0.05620287
H        0.78201754       0.43042094       1.24779833
H        0.64842073      -1.09890097       0.33871771
H        0.42247958       0.45955284      -0.49914339
H        3.02814184      -0.53259290       0.79372741
H        2.46992159      -1.81575355      -1.28528656
H        3.77367550       0.73753953      -2.43256969
H        3.59126053      -0.92631493      -3.26361870
H        3.72421904       3.53386134      -0.06095650
