18
Properties=species:S:1:pos:R:3 -1819.7066278248087=T 11.957015=T 12.61652=T -9.0419=T -6.8782=T -8.988=T 0.8774=T -0.0581=T 1.385=T 8.4944=T -0.74545=T 6.0897707676=T 0.295126161=T pbc="F F F"
C        0.98953926      -0.01060917      -0.01286726
C        2.52325813      -0.01553920       0.01283848
N        2.94881314       0.05908826       1.41974547
C        3.05101449      -1.24253141      -0.81215273
C        3.34326146      -0.67046870      -2.17399341
C        3.35115783       0.67118454      -2.15446241
C        3.06648278       1.21318837      -0.77992456
H        0.62088027      -0.01671215      -1.04851463
H        0.60337465       0.88179518       0.49919750
H        0.58784070      -0.90218222       0.49479009
H        3.96751995      -0.02954197       1.47849029
H        2.56137316      -0.73321795       1.94040429
H        2.32195838      -2.07034853      -0.83215548
H        3.97214399      -1.64990811      -0.35469775
H        3.55488692      -1.28498666      -3.05130473
H        3.56869112       1.30809711      -3.01379648
H        3.99042237       1.59886516      -0.31030306
H        2.34949140       2.04988745      -0.77276362
