12
Properties=species:S:1:pos:R:3 -1320.7679067786921=T 9.224514=T 9.57632=T -8.9357=T -6.8865=T -9.349=T 0.7346=T -0.9977=T 0.104=T 8.90627=T 0.5429=T 4.2686148052=T 5.8185265954=T 0.166851151=T pbc="F F F"
O        0.96042106       0.03844462      -0.07110797
C        2.37456455      -0.05976328       0.03705660
C        2.96764249      -1.28226447      -0.60495395
C        3.95725563      -0.88939523      -1.42598020
N        4.08171367       0.51905437      -1.45860415
C        3.08430462       1.10548554      -0.69843165
O        2.78745239       2.28964666      -0.63872229
H        0.74784045       0.98782719       0.03014621
H        2.69277304      -0.00960886       1.10170248
H        2.69405098      -2.30613876      -0.37087778
H        4.64799325      -1.49570852      -2.00737145
H        4.61430786       1.03837074      -2.15156585
