15
Properties=species:S:1:pos:R:3 -1537.9704826251634=T 9.611228=T 10.65537=T -9.2239=T -7.0782=T -11.242=T 0.8444=T -0.1449=T 2.688=T 10.67215=T -2.44963=T 8.9201975672=T 13.0609208134=T 0.155877244=T pbc="F F F"
O        1.05427200      -0.05913826       0.04104291
C        2.47049101       0.03470686       0.00963098
C        3.07712588       1.07636607      -1.00380270
C        2.69679302       0.05414171      -2.12300015
C        3.10269735      -0.94501740      -1.01442892
O        4.51815692      -0.70700509      -0.83033420
C        4.55962650       0.76027950      -0.82012232
H        0.71618589       0.69646157       0.55173440
H        2.91007820       0.01153488       1.02266998
H        2.77397961       2.13087433      -1.02230779
H        3.29360118       0.04643351      -3.04489124
H        1.62167644       0.04505942      -2.32886677
H        2.90138366      -2.02136081      -1.03148404
H        5.19696844       1.12024434      -1.64378617
H        4.97188391       1.10812934       0.14116603
