18
Properties=species:S:1:pos:R:3 -1745.7742167154258=T 11.338442=T 12.57278=T -8.8564=T -6.7153=T -10.094=T 0.7972=T -0.1618=T 2.936=T 9.64265=T -3.03716=T 7.8899606974=T 11.0834928966=T 0.281395544=T pbc="F F F"
C        0.90466292       0.01210295      -0.13788090
C        2.41049606       0.00327359       0.02682457
N        2.78633533      -0.05648117       1.43214161
C        3.24074203      -0.66450204      -1.06092819
C        3.22037069       0.85911384      -0.91908883
C        4.47963928       1.58852061      -0.52310092
O        5.36115761       1.79000888      -1.63757874
H        0.62075551       0.08739448      -1.19605779
H        0.46583846       0.85932545       0.40852291
H        0.46413219      -0.91628646       0.26088626
H        3.80188794      -0.05548567       1.54297770
H        2.45793500      -0.94327542       1.82720234
H        2.74068418      -1.12112632      -1.91729170
H        4.15110692      -1.17595989      -0.73666213
H        2.63630750       1.39590716      -1.67258051
H        5.00951954       1.05375743       0.28911978
H        4.24579417       2.59676483      -0.14984079
H        5.43756466       0.93157775      -2.09257466
