11
Properties=species:S:1:pos:R:3 -1239.7999102544406=T 9.482919=T 10.21694=T -8.3865=T -6.2457=T -9.231=T 1.6609=T -0.159=T 0.899=T 8.88185=T -0.40256=T 4.4725593766=T 11.0000503186=T 0.82985619=T pbc="F F F"
C        1.03463195      -0.00013429      -0.10596324
C        2.24509330      -0.00010782      -0.03827148
C        3.70782069       0.00002485       0.11788516
O        4.29790602      -1.16035676      -0.51152625
C        4.79859084      -0.66922100      -1.71902321
C        4.79859595       0.66560636      -1.72035584
O        4.29791295       1.15916612      -0.51384970
H       -0.03358214      -0.00018886      -0.18732739
H        3.98721089       0.00109152       1.18246983
H        5.13794488      -1.39921387      -2.44345570
H        5.13797467       1.39413375      -2.44625218
