14
Properties=species:S:1:pos:R:3 -1331.549464886268=T 8.809329=T 9.45969=T -8.959=T -6.8601=T -10.525=T 1.0658=T 0.1477=T 3.597=T 9.84458=T -3.35271=T 8.7043007454=T 12.3292794274=T 0.210311936=T pbc="F F F"
C        1.20564911       0.29343025       0.12729457
C        2.67409403       0.06087064      -0.20962567
N        3.41743346       1.32484415      -0.21491144
C        3.97411769       1.72674192       1.08207590
C        4.86196066       1.20641248       0.00050721
H        0.64590056      -0.65187545       0.09510650
H        0.75188735       0.99275363      -0.58853491
H        1.09480333       0.71954633       1.13536201
H        2.76721515      -0.37772410      -1.21679928
H        3.11754716      -0.66820421       0.50456883
H        3.80012307       1.06485926       1.93838737
H        3.94044646       2.79553466       1.30465696
H        5.48524224       1.88993487      -0.58056857
H        5.27651974       0.20190558       0.14230053
