18
Properties=species:S:1:pos:R:3 -1795.7877712355487=T 11.540025=T 12.50654=T -8.0365=T -6.0356=T -9.564=T 0.9615=T 0.0858=T 3.11=T 8.79183=T -2.85932=T 7.651548018=T 12.4960034016=T 0.08642009=T pbc="F F F"
C        1.03554006       0.02448438      -0.01215648
N        2.48842122       0.01983861       0.09288337
C        3.03666066      -1.08416398       0.95030349
C        3.90697881      -0.26333536       1.91617075
C        4.53904543       0.77368469       0.93630355
C        3.05707773       1.20037609       0.79496604
C        2.91886220       0.87582439       2.31575462
H        0.70618509      -0.88719979      -0.53198049
H        0.71623396       0.88494656      -0.61933319
H        0.50026543       0.07076915       0.96188770
H        3.61360910      -1.80485998       0.34898628
H        2.23562219      -1.62807509       1.48095306
H        4.50097671      -0.81689592       2.65451629
H        5.03661426       0.40093795       0.02984866
H        5.15252575       1.52141324       1.45473659
H        2.74788780       2.15320602       0.34662980
H        3.38719637       1.63230010       2.95904701
H        1.92965722       0.59664894       2.70794296
