15
Properties=species:S:1:pos:R:3 -1609.6086401867212=T 11.403081=T 11.85189=T -8.1612=T -6.1185=T -8.693=T 1.087=T -0.2487=T 1.118=T 8.31644=T -0.50796=T 5.6163426252=T 0.210368731=T pbc="F F F"
C        0.90135809      -0.09290281      -0.08154728
C        2.43632722      -0.01425775       0.00168935
C        3.14837419      -1.23438145      -0.53846873
C        3.95285519      -0.84953941      -1.53409283
O        3.93384798       0.51433002      -1.78515201
C        3.03739119       1.08326366      -0.87148900
C        2.81670354       2.40215814      -0.86781736
H        0.44400098       0.84367741       0.26724326
H        0.52263464      -0.91277956       0.54550286
H        0.57970412      -0.26905782      -1.11711825
H        2.71762025       0.16291025       1.05600015
H        3.01423312      -2.25097485      -0.18030261
H        4.62090591      -1.41239680      -2.18137350
H        3.32291754       3.05943814      -1.57237432
H        2.12250601       2.83752283      -0.15226975
