17
Properties=species:S:1:pos:R:3 -1807.6563756805422=T 13.258659=T 13.33838=T -8.1973=T -6.2409=T -8.159=T 0.8022=T -0.7005=T 0.46=T 7.62341=T 0.10376=T 4.9402717644=T 0.621935704=T pbc="F F F"
C        1.01821837       0.12078175      -0.45791738
C        2.44881792      -0.01126261       0.08080561
C        2.70768723      -1.31965209       0.88288696
C        3.40825921      -0.88996833       2.16642615
C        3.96814567      -1.69423247       3.09072733
C        3.36163019       0.56935976       2.20028691
C        2.83249479       1.06967039       1.06466171
H        0.78364810      -0.69636034      -1.15614266
H        0.87913786       1.07058189      -0.99524733
H        0.28853547       0.08632134       0.36550820
H        3.13947800       0.03959840      -0.78294252
H        3.29861254      -2.05342823       0.31702870
H        1.74762772      -1.80134785       1.13024119
H        3.96996381      -2.77978065       2.98125770
H        4.44100665      -1.28254514       3.98398431
H        3.73215734       1.15717094       3.04170317
H        2.70448914       2.13142323       0.84423194
