13
Properties=species:S:1:pos:R:3 -1348.1785793982438=T 9.598974=T 9.85286=T -9.3261=T -7.2862=T -9.581=T 0.3677=T -1.4078=T 0.005=T 9.28555=T 0.56989=T 4.4025692796=T 11.5443240614=T 0.161256233=T pbc="F F F"
C        1.06111046       0.13515361      -0.13037342
C        2.53929629      -0.05271292       0.19557329
O        3.31981687       1.11490423      -0.23044150
C        3.61565846       1.07616675      -1.55363079
N        3.70470419       0.02915035      -2.30354506
N        3.70140867      -1.21338261      -1.62612533
C        3.15332496      -1.25890083      -0.46358561
H        0.68479010       1.06319014       0.32066605
H        0.48652641      -0.70801282       0.27858276
H        0.89628415       0.16670572      -1.21550257
H        2.69102131      -0.09312214       1.28365233
H        3.82825907       2.06435758      -1.96999367
H        3.18732906      -2.21631705       0.06775352
