17
Properties=species:S:1:pos:R:3 -1642.6380096902951=T 10.568346=T 11.49081=T -8.9459=T -6.7441=T -10.31=T 0.9322=T -0.01=T 3.052=T 9.72906=T -2.8181=T 8.4330813704=T 13.6459363558=T 0.132467738=T pbc="F F F"
C        0.90026236      -0.00275623       0.07970031
C        2.41912207      -0.00389932       0.00947698
C        3.20632132       1.04629767       0.84798665
C        4.23582987      -0.04934956       1.24192904
N        5.49485792       0.08171382       0.50569398
C        3.20003935      -1.12207579       0.75995469
H        0.47265209      -0.87373332      -0.44050764
H        0.47651703       0.90247567      -0.38220791
H        0.55788675      -0.03615441       1.12646773
H        2.73640874       0.03871986      -1.04591988
H        2.62202505       1.39141222       1.71453543
H        3.61757056       1.92350665       0.32778635
H        4.48639678      -0.09800934       2.31241027
H        5.31118396       0.11593219      -0.50190349
H        6.07486344      -0.74806586       0.65980118
H        3.59529826      -1.96089647       0.16696081
H        2.61126445      -1.52852777       1.59842549
