15
Properties=species:S:1:pos:R:3 -1513.2129189403236=T 10.148399=T 10.97461=T -8.9822=T -6.9224=T -10.397=T 0.7746=T -0.208=T 0.617=T 9.55852=T 0.05138=T 4.35562818=T 6.8240530554=T 0.139903115=T pbc="F F F"
N        1.29383715      -0.02746053       0.72532141
C        2.09665178       0.21370500      -0.34862640
O        1.97105376      -0.30579355      -1.45768477
C        3.19234027       1.23801665      -0.06647398
C        2.91286344       2.69747051      -0.53072418
C        3.47344341       3.13320597       0.84300002
N        3.29430165       1.73478439       1.33808954
H        1.45270946       0.52715660       1.56589414
H        0.48204585      -0.62551451       0.62032368
H        4.13421124       0.84922192      -0.49007346
H        1.83937891       2.89723525      -0.64059420
H        3.44189049       3.03751228      -1.42669694
H        4.52925836       3.44731250       0.77894681
H        2.90911171       3.88791744       1.41062472
H        4.08953249       1.36247007       1.86265361
