15
Properties=species:S:1:pos:R:3 -1550.0015049745436=T 12.267778=T 12.38975=T -8.7048=T -6.8202=T -9.039=T 0.3391=T -1.2825=T 0.014=T 8.46342=T 0.51952=T 4.7611987846=T 5.758405784=T 0.350990315=T pbc="F F F"
N        2.73210143      -1.03858058      -0.40371208
C        2.08259204       0.04364552       0.18862926
N        0.97429982       0.00276095       0.84788388
C        2.82341162       1.34498322       0.05210242
C        2.14599117       2.50413046       0.16157022
C        4.27962322       1.29589484      -0.18833944
C        4.94666049       2.08692510      -1.04454923
H        3.36382151      -0.83005191      -1.17381586
H        2.17664611      -1.87903336      -0.53706743
H        0.55934236      -0.93879454       0.81923110
H        1.06966190       2.48903480       0.33176818
H        2.66408382       3.46235150       0.11946931
H        4.83594741       0.54349301       0.38181203
H        4.42548365       2.81395386      -1.67153566
H        6.03130345       2.02568712      -1.14264669
