19
Properties=species:S:1:pos:R:3 -1875.0124628425488=T 11.726956=T 13.32542=T -9.3171=T -7.1685=T -10.64=T 0.8354=T -0.1319=T 2.861=T 10.28274=T -2.50182=T 8.388706781=T 12.2167249366=T 0.16434784=T pbc="F F F"
C        2.91774683      -1.23426117      -0.50398572
C        2.37957012       0.02690745       0.17724070
C        3.38684186       1.16176046       0.22805733
O        4.57908111       0.85567720       0.93988278
C        3.61032199       2.02570365      -0.98124933
C        2.90530351       2.60399087       0.23871836
C        3.58497214       3.65641356       1.08392614
H        2.17249723      -2.04200230      -0.48829911
H        3.82510518      -1.59350605       0.00064803
H        3.17881405      -1.03320911      -1.55359387
H        2.06125068      -0.21043570       1.20946399
H        1.47575625       0.38419898      -0.34277386
H        4.33647809       0.75133200       1.87855252
H        3.03098988       1.82092469      -1.88287839
H        4.63675541       2.35389529      -1.15312067
H        1.82173984       2.72283777       0.13967349
H        4.65550702       3.43687238       1.19576416
H        3.14265570       3.70890550       2.09139286
H        3.48739312       4.65291452       0.62711058
