23
Properties=species:S:1:pos:R:3 -2211.3682105909184=T 13.486362=T 15.31873=T -10.8203=T -8.5461=T -12.253=T 0.933=T 0.072=T 2.989=T 12.05653=T -2.69474=T 10.4430432136=T 10.635705059=T 0.213157407=T pbc="F F F"
C        0.97130849      -0.14051145      -0.13247997
C        2.50130056      -0.11617626      -0.14946894
C        3.06759390       1.30585210      -0.23708957
C        4.59987954       1.41353452      -0.13505466
C        5.30457603       0.67913548      -1.28356441
C        5.07167696       2.88009827      -0.08311382
C        4.61052948       3.67481557       1.14128946
H        0.58249553      -1.16794030      -0.08262996
H        0.55744935       0.32929228      -1.03845941
H        0.57456110       0.41007710       0.73476082
H        2.86305837      -0.72134351      -0.99651598
H        2.88846612      -0.60351471       0.76297484
H        2.60864733       1.90436868       0.56801369
H        2.74041682       1.77107487      -1.18681310
H        4.90555283       0.93344656       0.81590336
H        5.01627971       1.11086761      -2.25619677
H        5.05697683      -0.39095612      -1.30644692
H        6.39781496       0.76406145      -1.19311330
H        4.74009933       3.39181722      -1.00520882
H        6.17469146       2.88657808      -0.11567766
H        3.51789524       3.79111210       1.17537748
H        5.04463509       4.68507182       1.14017270
H        4.92216496       3.18062866       2.07507093
