15
Properties=species:S:1:pos:R:3 -1541.8250237563216=T 10.24365=T 11.19357=T -9.6987=T -7.4249=T -9.852=T 1.3346=T -0.29=T 1.136=T 9.31181=T -0.57271=T 6.7430777988=T 0.430603362=T pbc="F F F"
C        0.83617304       0.06989997       0.05313344
C        2.14652166       0.13546222       0.30872505
C        3.00458289       1.35169284       0.13257704
C        2.32940016       2.72113699       0.18633018
O        3.41505133       3.58301760       0.54605053
C        4.24235071       2.82061826       1.42118311
O        3.93617495       1.43699257       1.23699707
H        0.28748992      -0.86516711       0.17104771
H        0.26168023       0.93394407      -0.28794072
H        2.68503254      -0.75634545       0.64244234
H        3.57715654       1.26354637      -0.81478543
H        1.53184183       2.73311785       0.95246388
H        1.93387942       3.06759526      -0.77682706
H        5.29228358       3.03827185       1.15692003
H        4.04802122       3.06950671       2.48188282
