12
Properties=species:S:1:pos:R:3 -1241.7623922934094=T 8.088075=T 8.89684=T -9.6512=T -7.3909=T -10.959=T 0.6947=T -1.3149=T -0.135=T 10.18442=T 0.76128=T 3.6736307884=T 13.649494754=T 0.149500185=T pbc="F F F"
O        1.12430325      -0.17485827      -0.44464446
C        2.09654127       0.16569266       0.20189853
C        3.01513420       1.29842567      -0.20955604
C        2.43142620       2.73094694      -0.11816225
C        3.59894912       2.98936477       0.85276749
O        4.02611264       1.59267781       0.79101557
H        2.38105928      -0.32852131       1.16739293
H        3.46000841       1.05119970      -1.19163663
H        1.43085485       2.78008053       0.32811483
H        2.44150579       3.29893175      -1.05441466
H        4.38341411       3.66220181       0.47059923
H        3.32898089       3.28271795       1.87904546
