14
Properties=species:S:1:pos:R:3 -1527.0751505898322=T 12.530322=T 13.62908=T -10.3262=T -8.1817=T -9.867=T 0.4801=T -1.2706=T 0.202=T 9.45533=T 0.15765=T 3.5737972612=T 7.7866431636=T 1.170290828=T pbc="F F F"
C        0.97444881      -0.01265828       0.01994853
C        2.51708036       0.01447147      -0.01375246
C        3.08187970      -0.75912091      -1.22372611
C        3.01203653       1.38301739       0.00355318
C        3.41860623       2.53476994       0.00137762
C        3.87409821       3.82015045       0.00238730
N        4.26591791       4.92788176       0.00218131
H        0.58683461       0.51790894       0.89887365
H        0.62488677      -1.05347045       0.05741577
H        0.56042959       0.46135659      -0.88062252
H        2.88941023      -0.46982242       0.90781780
H        2.73620976      -0.30942942      -2.16470157
H        2.73649676      -1.80141046      -1.18864336
H        4.17925453      -0.75445459      -1.22127913
