15
Properties=species:S:1:pos:R:3 -1510.8668416405549=T 14.302853=T 14.43148=T -7.7006=T -5.8861=T -8.259=T 0.7583=T -0.8128=T 0.139=T 7.80808=T 0.4199=T 3.7409799836=T 10.6311919686=T 0.51083463=T pbc="F F F"
C        1.16219023      -0.07466197      -1.03717809
N        2.54006670      -0.05514956      -0.57044684
N        3.17340243       1.13440290      -0.67061844
C        4.19796282       1.34289651       0.10605921
C        4.97554406       2.51886278       0.02111564
C        5.69635280       3.50430388       0.02169756
C        6.54158687       4.68509772      -0.00864691
H        0.82621286      -1.11809106      -1.09749324
H        1.12870384       0.36598641      -2.04101363
H        0.47299114       0.48910959      -0.38323772
H        2.71437858      -0.58639272       0.29294547
H        4.49957670       0.59249648       0.85993971
H        5.93902913       5.60313246      -0.08108348
H        7.22542263       4.66620745      -0.87141959
H        7.15424922       4.75738912       0.90225034
