20
Properties=species:S:1:pos:R:3 -1940.5045514602684=T 12.552302=T 13.97993=T -8.5026=T -6.4257=T -9.813=T 0.8733=T -0.052=T 3.052=T 9.38568=T -2.73354=T 7.84273443=T 11.1596326992=T 0.186781647=T pbc="F F F"
C        2.83257287      -1.05037681      -0.42763958
C        2.33469468       0.22064848       0.27057937
C        3.36971852       1.32843858       0.26311566
C        3.51497391       2.26451100      -0.93061056
C        3.06604176       2.81860979       0.39684297
C        1.64190705       3.30784672       0.55909534
N        4.00497278       3.69761720       1.08580738
H        2.06774636      -1.84059516      -0.41836206
H        3.73101105      -1.44880241       0.06821177
H        3.09640404      -0.84545268      -1.47610475
H        2.05531075      -0.01761343       1.31204456
H        1.41144211       0.56621111      -0.22151484
H        4.32045407       1.03835825       0.72663327
H        2.76701579       2.18654530      -1.72343495
H        4.51627911       2.51788869      -1.28598440
H        0.92577284       2.68946740       0.00349799
H        1.56394948       4.34319030       0.19722021
H        1.34056881       3.29749563       1.61956914
H        4.96670547       3.41660468       0.87971934
H        3.88795856       3.59504738       2.09945411
