20
Properties=species:S:1:pos:R:3 -1934.2381898869048=T 12.640196=T 14.32507=T -8.5276=T -6.4607=T -10.034=T 0.9716=T 0.0675=T 3.288=T 9.28155=T -2.97752=T 8.1124907702=T 11.3953424838=T 0.365963149=T pbc="F F F"
C        1.00546354       0.50107755       0.23771614
C        2.49446675       0.31175751      -0.02895515
N        3.19494408       1.59563989      -0.06472039
C        4.63827412       1.45889558      -0.26017825
C        5.33109039       2.79800836      -0.18259729
C        5.75533385       3.34464362       1.16409955
C        6.79492841       2.86914939       0.17467732
H        0.48219793      -0.46533151       0.23583212
H        0.55314683       1.14694393      -0.52783108
H        0.83502312       0.96864139       1.22022975
H        2.63659659      -0.17255202      -1.01063200
H        2.92433585      -0.38606006       0.72557537
H        3.03156850       2.09298816       0.81651709
H        4.80221514       1.01017974      -1.25644969
H        5.11043035       0.76566080       0.47539805
H        4.97031065       3.53272312      -0.90660054
H        5.57722062       2.71973268       2.04187127
H        5.66348672       4.41608841       1.34398566
H        7.41054850       3.61628795      -0.32660901
H        7.30926805       1.93175552       0.39355108
