17
Properties=species:S:1:pos:R:3 -1741.8066489404255=T 11.154868=T 12.29161=T -9.4576=T -7.3062=T -10.788=T 0.8232=T -1.0567=T 0.016=T 9.93568=T 0.63972=T 3.659260811=T 11.977605537=T 0.135538457=T pbc="F F F"
C        0.91060353       0.02671294       0.06674715
C        2.42868592       0.02924611       0.01992550
C        3.20025101       1.04455392       0.90626593
C        4.23543645      -0.07488764       1.27325020
C        3.19816136      -1.11791009       0.72957137
C        5.50036842      -0.00926462       0.45461611
O        5.53774307       0.09052626      -0.76119271
H        0.49534372      -0.81691955      -0.50560818
H        0.49674645       0.95273765      -0.36096705
H        0.54643725      -0.05773387       1.10312219
H        2.78450015       0.11367911      -1.01765469
H        2.62256858       1.33952600       1.79480521
H        3.60207529       1.94222705       0.41749418
H        4.49398806      -0.16218917       2.33780096
H        3.59827211      -1.92523153       0.10159142
H        2.61976053      -1.55202273       1.55856562
H        6.45623809      -0.05861984       1.03949678
