16
Properties=species:S:1:pos:R:3 -1572.1841386919812=T 10.310465=T 11.30396=T -8.9686=T -6.782=T -10.25=T 1.8196=T -0.2602=T -0.18=T 10.82053=T 0.6866=T 4.376457828=T 9.5220132126=T 0.127682092=T pbc="F F F"
C        1.01515624      -0.34443690       1.22000883
N        2.25319474      -0.13433654       0.47292884
C        2.68179939       1.26124970       0.47700846
C        3.99218235       1.44358100      -0.26532423
O        5.06802574       0.72212025       0.41939552
C        5.90434076       1.46612129       1.18229632
O        5.86391790       2.66565760       1.35118639
H        0.77864137      -1.41685349       1.24273831
H        0.18623873       0.16764210       0.70690849
H        1.04414643       0.02960160       2.26514490
H        2.99717918      -0.70424762       0.88330730
H        2.77730252       1.69428499       1.49731049
H        1.91833737       1.86157822      -0.04842218
H        4.26566707       2.50375829      -0.33307438
H        3.94006615       0.98688507      -1.26215548
H        6.65481405       0.78732444       1.63315243
