17
Properties=species:S:1:pos:R:3 -1808.932419313183=T 12.59205=T 13.19424=T -8.0267=T -6.0259=T -7.95=T 0.9325=T -0.5465=T 0.739=T 7.45988=T -0.14545=T 4.461326245=T 7.1431930194=T 0.565987299=T pbc="F F F"
C        2.45777660      -0.63452572      -1.37473744
C        2.32609795       0.07161017      -0.01326567
C        2.91377682       1.45031617       0.01271361
C        2.26577034       2.63554061       0.17351759
C        3.22500913       3.74057065       0.12629873
C        4.47292393       3.24419510      -0.06086785
C        4.38661883       1.74685671      -0.15217547
H        1.99054757      -1.62955260      -1.34719763
H        3.51203725      -0.76992452      -1.65724393
H        1.97027406      -0.04854792      -2.16731196
H        2.81153721      -0.55360296       0.75801394
H        1.26229552       0.13328240       0.26584358
H        1.19094316       2.75382573       0.31974698
H        2.96128226       4.79353363       0.22803808
H        5.39910789       3.81045583      -0.13981050
H        4.77762842       1.37342204      -1.11605007
H        4.99027306       1.24735469       0.62764800
