15
Properties=species:S:1:pos:R:3 -1459.8263532844715=T 11.77011=T 12.11741=T -8.2521=T -6.3248=T -8.973=T 1.1342=T -0.4584=T 0.461=T 8.42524=T 0.11566=T 4.815182289=T 5.1552262926=T 0.237217955=T pbc="F F F"
C        2.42130501      -1.21515381      -0.79490696
N        3.66461000      -0.59067666      -0.36622106
N        3.71500537       0.75609161      -0.50962180
C        4.53732876       1.43389729       0.21964146
C        4.65824271       2.88572198       0.01700908
C        5.13096047       3.78224954       1.09212075
O        6.01479842       3.42972773       0.01833200
H        2.56273161      -2.30375262      -0.80736618
H        2.19514108      -0.87884987      -1.81435488
H        1.56140192      -0.97101677      -0.14526889
H        4.04461796      -0.95637184       0.51564234
H        5.18529253       0.96516847       0.98195312
H        4.00310665       3.29793822      -0.75737039
H        5.38795333       3.35814641       2.07006653
H        4.79077417       4.82397034       1.10370487
