15
Properties=species:S:1:pos:R:3 -1601.6916956857249=T 13.544878=T 14.22274=T -8.3294=T -6.5041=T -8.218=T 1.1297=T -0.3439=T 0.306=T 7.57808=T 0.26868=T 4.3640716266=T 11.5915503288=T 0.486529627=T pbc="F F F"
C        0.95383408       0.02874004      -0.01100710
C        2.45747704       0.05611869      -0.00186970
C        3.19807433       1.21806778       0.00817853
S        4.90043522       0.91111681       0.01759879
C        4.63209655      -0.79748125       0.00784148
C        3.29150840      -1.11822588      -0.00217278
C        2.77136149      -2.53294940      -0.01338848
H        0.54277094       1.04644522      -0.00643412
H        0.55340230      -0.49682640       0.86970176
H        0.56377434      -0.48485397      -0.90334831
H        2.83459364       2.24218261       0.01108532
H        5.48309614      -1.47378836       0.01010557
H        1.67430086      -2.55701744      -0.00381470
H        3.12150388      -3.09702504       0.86357729
H        3.10520078      -3.07709340      -0.90928354
