17
Properties=species:S:1:pos:R:3 -1719.258991187777=T 12.336615=T 14.18688=T -9.4204=T -7.1276=T -9.173=T 0.9077=T -0.2219=T 2.375=T 8.72837=T -1.93477=T 4.1488691264=T 10.0800865972=T 0.268356083=T pbc="F F F"
C        0.97021889      -0.04745531       0.01953121
C        2.51141390      -0.01619895      -0.01432078
C        3.06677175      -0.80406359      -1.21675756
C        3.00170902       1.36306660      -0.00921796
C        3.38343750       2.51767639      -0.03016727
C        3.88474763       3.88423796      -0.03388482
O        2.85117667       4.78492607      -0.47594927
H        0.58369969       0.48712183       0.89704490
H        0.61401654      -1.08705224       0.05697175
H        0.55651139       0.43001364      -0.88006766
H        2.87881645      -0.50100612       0.90900202
H        2.72051291      -0.35883872      -2.16053249
H        2.72329317      -1.84808730      -1.17886819
H        4.16487826      -0.79919190      -1.21966385
H        4.76671951       3.94422635      -0.70024948
H        4.22339456       4.14852589       0.98639630
H        3.23263215       5.68001939      -0.46666686
