15
Properties=species:S:1:pos:R:3 -1516.5653790373524=T 10.764824=T 11.34753=T -8.7871=T -6.661=T -8.535=T 0.8093=T -0.1557=T 1.381=T 8.05607=T -0.72438=T 5.5141657626=T 11.3706196754=T 0.265454882=T pbc="F F F"
N        0.94561266      -0.34259151      -0.26858101
C        2.27643401       0.10003835       0.11984400
C        3.54089988      -0.69610878      -0.35481888
N        4.34726463       0.59827832      -0.20311962
C        3.03468048       1.19074522      -0.72562126
C        3.02268188       0.57225237      -2.12569125
C        3.36281772      -0.70046449      -1.87721021
H        0.24417122       0.31085974       0.08978862
H        0.73998478      -1.24559034       0.16719281
H        2.37869787       0.34100916       1.19853873
H        3.90785870      -1.59804390       0.15124485
H        4.37953478       0.80556269       0.80998357
H        2.86876228       2.26844143      -0.60534949
H        2.78594387       1.07414032      -3.05947782
H        3.49163523      -1.54560857      -2.54745303
