14
Properties=species:S:1:pos:R:3 -1492.8445148681235=T 10.613452=T 11.0207=T -8.7558=T -6.734=T -10.129=T -0.274=T -1.9638=T -0.568=T 9.48544=T 1.17856=T 3.4691654758=T 5.4409148338=T 0.336612528=T pbc="F F F"
C        1.02548846      -0.02761853       0.18480251
C        2.34920882       0.03251320      -0.01214469
C        3.28397224       1.22044322      -0.03276271
N        4.46453130       0.79551753      -0.82998112
C        4.60574351      -0.64890503      -0.57134094
C        3.18774997      -1.17908082      -0.31518024
O        2.81704329      -2.34111830      -0.36201363
H        0.51760385      -0.99315696       0.12071848
H        0.42365677       0.85573790       0.40642791
H        3.62089437       1.46665914       0.99060356
H        2.83525951       2.12755628      -0.45815971
H        4.22935920       0.91448756      -1.81952106
H        5.09569419      -1.17843616      -1.39775354
H        5.21389451      -0.81498904       0.33726518
