14
Properties=species:S:1:pos:R:3 -1509.5040042226071=T 10.391763=T 11.26858=T -9.0434=T -6.9428=T -8.622=T 1.2222=T -0.2441=T 0.35=T 8.20337=T 0.2993=T 4.5349491318=T 7.4177600164=T 0.224065298=T pbc="F F F"
C        0.95821103      -0.12772154      -0.08934203
C        2.47138581       0.07599232       0.09050770
C        2.88467116       1.50559883       0.03610790
N        3.32607595       2.26795839       0.99942496
C        3.53542243       3.50978038       0.40458576
C        3.20459184       3.43953479      -0.91222866
O        2.78148493       2.15532316      -1.17565841
H        0.70696877      -1.19558449      -0.03230593
H        0.62118993       0.25049082      -1.06394469
H        0.39754977       0.39900307       0.69509857
H        3.01737490      -0.48455884      -0.68527397
H        2.80037225      -0.30782382       1.06516661
H        3.90935221       4.35966561       0.96717016
H        3.20568901       4.13144131      -1.74606797
