14
Properties=species:S:1:pos:R:3 -1356.267181263771=T 10.466688=T 10.80005=T -8.477=T -6.4545=T -9.073=T 1.4936=T -0.2367=T 0.671=T 8.49663=T -0.14767=T 4.8394091534=T 5.3394818872=T 0.335509516=T pbc="F F F"
C        2.12501190      -0.32762560      -0.12125016
N        3.38022344      -0.17561800      -0.35969445
N        3.80161468       1.00770922      -0.88994865
C        5.17882325       1.34635170      -0.64909365
C        6.21834602       0.70978760      -1.53314313
C        5.86843370       2.16844458      -1.71019533
H        1.79423035      -1.29868183       0.24729332
H        1.37592918       0.46656522      -0.28246906
H        3.14755075       1.79489787      -0.77864669
H        5.46180407       1.53285932       0.39390457
H        5.85022739       0.00795230      -2.28050967
H        7.17529376       0.45218504      -1.08012749
H        6.58145101       2.92449563      -1.38209892
H        5.27641050       2.43629695      -2.58575069
