13
Properties=species:S:1:pos:R:3 -1443.6374657551169=T 10.787039=T 11.53423=T -8.6596=T -6.5546=T -9.012=T 0.9739=T -0.0359=T 1.014=T 8.59963=T -0.46486=T 4.3401051328=T 10.680587991=T 0.745950977=T pbc="F F F"
C        0.94074514      -0.01433149      -0.05353772
C        2.15445338      -0.00386623      -0.02006647
C        3.61761190       0.00617749       0.01825570
C        4.24453926      -1.25347122       0.69552182
O        4.77604646      -0.82719937       1.98558186
C        4.76542499       0.54281229       1.96888567
C        4.17960729       1.10990581       0.90727379
H       -0.12978776      -0.02026452      -0.07536502
H        3.98713106       0.09044135      -1.01789362
H        5.08775338      -1.63823945       0.10274784
H        3.51631508      -2.05243219       0.87623028
H        5.22771205       1.00585650       2.83880326
H        4.03936777       2.17151103       0.73270263
