16
Properties=species:S:1:pos:R:3 -1530.6770269227466=T 9.267983=T 10.17207=T -9.8945=T -7.6591=T -11.73=T 0.7939=T -0.2846=T 2.608=T 11.31354=T -2.31588=T 9.2455492298=T 12.8492147184=T 0.063777647=T pbc="F F F"
C        0.89318911       0.01408737       0.03083421
C        2.41997173      -0.00360200       0.03549082
C        2.95660199      -0.78642556       1.24478197
O        2.83254464      -0.64929816      -1.18396524
C        2.96200161       1.43864365       0.01927146
O        4.37738448       1.47727330      -0.23116122
H        0.51864701       0.56746430      -0.84144771
H        0.49843277       0.47957944       0.94528603
H        0.50907074      -1.01380139      -0.02650960
H        2.62532831      -0.34148588       2.19566690
H        4.05707008      -0.82240122       1.23971600
H        2.59769272      -1.82344932       1.20107795
H        3.75327110      -0.35562195      -1.33362149
H        2.70720739       1.96327223       0.95721288
H        2.50396389       1.98084730      -0.82091994
H        4.83516243       1.24363788       0.59518698
