16
Properties=species:S:1:pos:R:3 -1586.0653011557238=T 10.415901=T 11.56727=T -9.4311=T -7.3859=T -10.731=T 0.8225=T -0.1421=T 0.614=T 9.67368=T 0.01728=T 4.403920727=T 12.5485114726=T 0.306937724=T pbc="F F F"
C        2.31089319      -1.11831770       0.77983841
C        3.76945059      -0.91525357       0.41933047
O        3.98152066       0.46859983       0.11798797
C        5.33000289       0.74809676      -0.23712913
C        5.54329454       2.23483787      -0.52213488
N        4.43859633       3.01278376      -0.35827358
O        6.64733887       2.65105643      -0.86663963
H        2.12588993      -2.17478587       1.01818350
H        1.65906739      -0.83432673      -0.05782139
H        2.03804762      -0.51423916       1.65617336
H        4.04793698      -1.53080985      -0.45851123
H        4.42873962      -1.21477985       1.25773302
H        5.63246748       0.18992057      -1.14315978
H        6.02618426       0.46491086       0.57517933
H        3.56010481       2.58832101      -0.07735289
H        4.50812485       4.00905563      -0.53303356
