14
Properties=species:S:1:pos:R:3 -1529.3173541446765=T 11.78859=T 12.63802=T -10.1654=T -8.0352=T -9.779=T 0.7575=T -0.9441=T 0.441=T 9.37534=T -0.10901=T 5.3130976664=T 6.3030266876=T 0.444530037=T pbc="F F F"
C        1.40955364      -0.30104131      -1.08258451
C        2.27537742      -0.03268544      -0.10318371
C        3.03590087       1.27879847       0.01315144
C        2.66060687       2.02568041       1.28336877
C        2.08278347       3.22855696       1.29036211
C        4.48540003       1.02412762      -0.01108641
N        5.63270463       0.81218983      -0.01433937
H        0.87142870      -1.24866347      -1.11567245
H        1.20813436       0.41397029      -1.88354719
H        2.46994415      -0.76307999       0.68729202
H        2.79764692       1.91096392      -0.85876251
H        2.88400057       1.50666116       2.21979932
H        1.85915520       3.76414362       0.36490991
H        1.81380316       3.71956794       2.22589256
