17
Properties=species:S:1:pos:R:3 -1750.9918542213966=T 10.775854=T 12.06056=T -9.4757=T -7.448=T -11.251=T 0.9082=T 0.0146=T 2.751=T 10.6946=T -2.42036=T 8.7776632616=T 10.4247676772=T 0.205051116=T pbc="F F F"
C        1.44826757       0.43964394      -0.07352596
C        2.80032732      -0.20757691       0.04332308
C        2.94258638      -1.72380899       0.05548139
C        4.46321328      -1.97555476      -0.05629840
C        5.02824088      -0.74960807      -0.81329213
C        4.06180809       0.36386977      -0.46890092
O        3.74560108       0.44089085       0.94510470
H        1.54388708       1.53237407      -0.10972787
H        0.81894735       0.17898769       0.79083915
H        0.92985659       0.09873603      -0.98213425
H        2.40285089      -2.13064711      -0.81675952
H        2.50220302      -2.17726398       0.95651149
H        4.90192326      -2.01624591       0.94905919
H        4.69734422      -2.92344989      -0.55928536
H        6.06534623      -0.51761982      -0.52863133
H        5.01174943      -0.90386122      -1.90583126
H        4.09812734       1.32641431      -0.98976200
