17
Properties=species:S:1:pos:R:3 -1643.7293564515733=T 11.100914=T 11.73385=T -9.1506=T -6.9595=T -9.132=T 0.8567=T -0.1053=T 1.469=T 8.51188=T -0.83438=T 6.3930405236=T 0.405464369=T pbc="F F F"
C        0.95426384      -0.17377129      -0.14197987
C        2.47356354       0.06087637      -0.02599818
N        3.27714147      -0.71512972      -0.99601612
C        2.81165504       1.54320577      -0.12716709
C        2.78963717       2.16404484      -1.49838144
C        3.10111802       2.25560960       0.97097879
H        0.40229529       0.39100859       0.62386384
H        0.72314143      -1.24244187      -0.01551266
H        0.57769385       0.13549083      -1.12939129
H        2.79350749      -0.27359621       0.97460583
H        2.90288990      -0.57519997      -1.94012690
H        3.15688324      -1.71240648      -0.80064377
H        1.81969846       2.01787530      -2.00117974
H        3.56133470       1.70836476      -2.13883143
H        2.98464698       3.24311712      -1.44805862
H        3.13777364       1.79012139       1.95849905
H        3.31337595       3.32557096       0.91907962
