17
Properties=species:S:1:pos:R:3 -1733.8949099663796=T 13.201692=T 13.6268=T -8.1965=T -6.2211=T -8.254=T 0.9513=T -0.5349=T 0.401=T 7.69977=T 0.14765=T 5.0342779496=T 0.721179032=T pbc="F F F"
C        1.07341942       0.04541674      -0.29591881
O        2.49345973       0.15975118      -0.22657399
C        3.00269584       1.42323699      -0.06518308
C        2.25984811       2.55169619       0.03097060
C        4.46398987       1.44646053      -0.00376050
C        5.26633965       0.36943782      -0.08634122
C        6.75912133       0.41886251      -0.02055605
H        0.86241494      -1.02225747      -0.42483178
H        0.67055176       0.60842624      -1.15398789
H        0.59935221       0.40706719       0.63146097
H        1.17418206       2.56224004      -0.01089681
H        2.76926745       3.50435180       0.15751323
H        4.90105013       2.44164357       0.12063527
H        4.80417239      -0.61431841      -0.21002232
H        7.12982893       1.44641247       0.09939383
H        7.21034651      -0.00552495      -0.93228953
H        7.13901969      -0.18419244       0.82034808
