19
Properties=species:S:1:pos:R:3 -1811.3926221538827=T 12.105656=T 13.5171=T -8.6739=T -6.4985=T -9.958=T 0.8915=T -0.0508=T 3.092=T 9.50283=T -2.75555=T 8.103786953=T 11.3848160724=T 0.150207613=T pbc="F F F"
N        1.23465218       2.81623299      -1.63278184
C        2.54883242       2.98224625      -0.99198287
C        3.23452187       1.62590642      -0.81043115
C        4.61213776       1.73300739      -0.19427814
C        5.63699728       0.63138663      -0.40458512
C        5.84121364       1.96834802      -1.05996210
N        6.97244525       2.78805911      -0.67491860
H        0.79751332       3.72953836      -1.77522171
H        0.61034821       2.29928574      -1.00686555
H        2.50984920       3.49909237      -0.00969681
H        3.16783040       3.61052735      -1.65371225
H        3.29804004       1.13057125      -1.79374617
H        2.59508087       0.97810692      -0.18179180
H        4.64879244       2.21233329       0.79009679
H        5.36146180      -0.21946456      -1.03016273
H        6.29014285       0.37678969       0.43293218
H        5.65228278       1.99744364      -2.13830154
H        7.27644231       2.55197165       0.27213505
H        6.70728537       3.77662750      -0.66020564
