14
Properties=species:S:1:pos:R:3 -1395.4262935107206=T 10.079584=T 10.8032=T -9.7344=T -7.7038=T -11.016=T 1.713=T -0.2265=T 0.065=T 10.23818=T 0.47866=T 4.2184128738=T 11.6618379922=T 0.273381712=T pbc="F F F"
O        4.20513395       0.26273830       1.91283649
C        4.14191493       1.44218268       1.59806623
N        4.70991350       1.94796473       0.44918553
O        4.21840832       3.20235966       0.00098306
C        5.30009563       4.11435252      -0.15289914
C        6.04825798       4.13395014      -1.45866813
C        5.03791255       5.21771783      -1.12545499
H        3.67376183       2.24402995       2.21094441
H        4.88761458       1.29175984      -0.31656173
H        5.83696771       4.32091340       0.77657037
H        5.75109792       3.40540453      -2.21340659
H        7.11114620       4.37467059      -1.43815735
H        5.39111718       6.21616326      -0.86952647
H        4.08554771       5.18408258      -1.65477167
