15
Properties=species:S:1:pos:R:3 -1575.2075157938077=T 11.649734=T 11.97352=T -7.7681=T -5.8268=T -7.738=T 0.7616=T -0.1655=T 1.129=T 7.24236=T -0.52299=T 4.6724620044=T 6.3054444146=T 0.425059055=T pbc="F F F"
N        1.79760547      -0.40708076      -1.14382954
C        2.73467370      -0.08723272      -0.05944498
C        3.05792108       1.37737018      -0.05428102
C        2.29635244       2.48564059      -0.39526646
C        3.08992932       3.64681204      -0.16552433
C        4.31801883       3.22569022       0.31260016
N        4.28635044       1.84707418       0.36998832
H        1.56754297      -1.40250931      -1.12529223
H        2.23605019      -0.21319657      -2.04792379
H        3.69004129      -0.65717053      -0.09135601
H        2.24206546      -0.37127674       0.88842226
H        1.27789874       2.44457591      -0.76866326
H        2.79798562       4.67914680      -0.33545326
H        5.20388783       3.77990810       0.60404445
H        5.05115663       1.25906862       0.68207969
