10
Properties=species:S:1:pos:R:3 -1208.0705057942623=T 8.996406=T 8.99804=T -10.1544=T -8.1666=T -11.317=T -1.1105=T -3.0004=T -2.091=T 10.82774=T 2.29166=T 3.554616627=T 5.6965615672=T 0.536215173=T pbc="F F F"
O        1.11490773      -0.10100752      -0.41589704
C        2.29041394      -0.02356544      -0.10560070
N        3.15385896      -1.09719048       0.15165146
C        4.44202595      -0.65517404       0.48271286
O        5.39862719      -1.35846919       0.75546615
C        4.37188422       0.84494849       0.42501630
C        3.12692454       1.21042922       0.08468487
H        2.87985761      -2.07462160       0.10439948
H        5.23964356       1.46396092       0.63973830
H        2.71170630       2.20609965      -0.05139167
