16
Properties=species:S:1:pos:R:3 -1629.4705839329602=T 12.059158=T 13.49325=T -9.0431=T -7.0211=T -9.896=T 0.9731=T 0.0699=T 2.273=T 9.47865=T -1.85633=T 4.3725274718=T 10.596525483=T 0.379003618=T pbc="F F F"
C        1.18108960      -0.16574856       0.10563131
N        2.63095863      -0.10191130      -0.06229093
C        3.14680944      -0.59797138      -1.34683729
C        3.12016609       0.86263366      -1.04720286
C        4.37774154       1.63711618      -0.67565698
C        5.07667541       2.17464245      -1.83807511
C        5.63802638       2.61277100      -2.82125141
H        0.86827068       0.58644895       0.84429980
H        0.90633089      -1.15889855       0.48994613
H        0.62058742       0.01147887      -0.83498996
H        2.42374587      -0.97008724      -2.08085532
H        4.08829560      -1.15093010      -1.29698852
H        2.36527594       1.44566451      -1.58949556
H        5.04587336       0.97060751      -0.10696705
H        4.10905875       2.46270107       0.00561605
H        6.14781441       2.99958291      -3.67958232
