14
Properties=species:S:1:pos:R:3 -1417.833397997954=T 8.762856=T 9.81664=T -10.217=T -8.0761=T -11.458=T 0.6377=T -0.413=T 0.075=T 10.40299=T 0.51969=T 4.3245200926=T 11.1711262014=T 0.226034746=T pbc="F F F"
C        0.67270267      -0.70387960      -0.30711554
C        2.08099236      -0.19839560       0.00591166
C        2.17008802       1.32738330      -0.01778747
C        3.56032113       1.86268857       0.29235310
O        3.67771700       3.23377469       0.25854790
O        4.52837345       1.18790023       0.55679489
H        0.63395225      -1.80172384      -0.28571756
H        0.34047912      -0.37974289      -1.30548801
H       -0.06119404      -0.33175121       0.42436813
H        2.80412470      -0.60765932      -0.71548807
H        2.40691880      -0.55781643       0.99344926
H        1.46408839       1.76457856       0.71123699
H        1.86293518       1.71474494      -1.00595891
H        2.81261097       3.62486860       0.03016364
