13
Properties=species:S:1:pos:R:3 -1347.4896396212328=T 9.613557=T 10.07114=T -9.975=T -7.9307=T -9.97=T 0.2425=T -1.5419=T 0.105=T 9.65098=T 0.4432=T 4.9208555568=T 12.3098012268=T 0.228797528=T pbc="F F F"
O        3.07081341      -1.07099210      -0.54477776
C        2.33853911      -0.03675386       0.11728511
C        3.20243969       1.23003676       0.07720911
C        2.62245605       2.42840336       0.76346738
N        2.52534412       3.45940957      -0.00950758
N        3.01699244       3.08308125      -1.32686628
C        3.38736260       1.84543637      -1.27562160
H        2.49561539      -1.85126859      -0.61677044
H        2.13600714      -0.30209332       1.17055715
H        1.37397903       0.16131026      -0.38247731
H        4.18753461       0.97455789       0.51334562
H        2.31149404       2.48234746       1.80855210
H        3.79145237       1.33823494      -2.15240552
