18
Properties=species:S:1:pos:R:3 -1747.8510779225114=T 10.972747=T 11.87396=T -7.9571=T -5.9184=T -9.399=T 0.9232=T -0.0022=T 3.131=T 8.65558=T -2.97189=T 7.2804083256=T 13.3636946254=T 0.159946763=T pbc="F F F"
C        0.98724856       0.03929396       0.18479513
N        2.42942224       0.00760304      -0.04451595
C        2.92078477      -1.27189254      -0.57635114
C        2.66269659      -1.44466018      -2.07471985
O        3.22331310      -0.35406449      -2.81935283
C        2.66544088       0.89199668      -2.37855950
C        2.92361440       1.10735749      -0.88573620
H        0.72242974       0.99674690       0.65814038
H        0.71987369      -0.76512188       0.88643099
H        0.35034926      -0.07653418      -0.71663936
H        2.46153645      -2.09728792      -0.00897458
H        4.01067861      -1.31153019      -0.40468166
H        3.14718149      -2.35563936      -2.45595921
H        1.57621546      -1.51835438      -2.28413382
H        3.15218627       1.67406257      -2.97974181
H        1.57912296       0.91241388      -2.60031359
H        4.01369754       1.18679654      -0.72968037
H        2.46678800       2.05156406      -0.54827663
