12
Properties=species:S:1:pos:R:3 -1368.5217719882937=T 11.010708=T 10.5501=T -8.2151=T -6.2681=T -8.663=T -0.5759=T -2.2934=T -1.417=T 8.04173=T 1.7524=T 2.6508454772=T 5.9292956878=T 0.458967277=T pbc="F F F"
N        1.02949769       0.06324780      -0.08731190
C        2.38257467      -0.05948327      -0.02882702
C        3.16459498      -1.18290470      -0.01493616
C        4.55907318      -0.73968562       0.01171599
O        5.58686343      -1.41317228       0.03618692
C        4.52828565       0.79308467       0.00905172
C        3.24417744       1.17279507      -0.01718026
H        0.44023950      -0.75434662       0.02398371
H        0.59854512       0.96368304       0.08904570
H        2.85157212      -2.22248359      -0.01703395
H        5.42400608       1.40921397       0.02352926
H        2.84002017       2.18561153      -0.03334401
