17
Properties=species:S:1:pos:R:3 -1733.3062917950106=T 12.853712=T 13.25203=T -8.4014=T -6.4283=T -8.536=T 0.8066=T -0.7548=T 0.304=T 7.9763=T 0.18843=T 5.2113423562=T 0.705635321=T pbc="F F F"
C        2.89288298      -0.15219549       0.66541642
C        4.21317453       0.19592356       0.00685451
O        4.35245350       1.62541131       0.02523647
C        5.49300523       2.14986428      -0.51796758
C        6.49955701       1.43295121      -1.07271931
C        5.53791433       3.61273867      -0.44748866
C        4.58105032       4.39318437       0.08051928
H        2.75663744      -1.24237513       0.67272035
H        2.05211661       0.29803932       0.12022366
H        2.86764471       0.20648554       1.70334506
H        4.24481120      -0.15922456      -1.03894711
H        5.06189615      -0.25903668       0.54817999
H        6.49903031       0.34862140      -1.14355497
H        7.36050890       1.96373918      -1.47308473
H        6.44025469       4.06059527      -0.87082510
H        3.67359677       3.96550378       0.50715529
H        4.68930532       5.47751397       0.09466643
