18
Properties=species:S:1:pos:R:3 -1798.6932789615582=T 11.294607=T 12.19673=T -8.1163=T -6.077=T -9.875=T 0.9066=T -0.0108=T 3.055=T 9.23801=T -2.78638=T 8.0810727178=T 10.7596042688=T 0.098987306=T pbc="F F F"
C       -0.86534198       0.00877237      -1.11056425
C       -0.64065698       1.09927473      -0.03313209
C       -1.12880435       0.00791893       0.94121154
N       -0.67934202      -1.05165048      -0.04120312
C        0.77305554      -1.26187871       0.17053114
C        1.64228328       0.00333281      -0.06794646
C        0.86443287       1.31674038       0.19355322
H       -1.90294876      -0.02687218      -1.47482177
H       -0.17868527      -0.05125204      -1.96813779
H       -1.19890978       2.04658452      -0.09881554
H       -0.65707623      -0.04963741       1.93557343
H       -2.22406428      -0.03233567       1.05040113
H        0.88890393      -1.63773298       1.19978223
H        1.10592572      -2.07114421      -0.49963380
H        1.98006355       0.00228680      -1.11523392
H        2.55811607      -0.04160870       0.54017619
H        1.24545405       2.10858443      -0.47110882
H        1.01708462       1.67191740       1.22659869
