15
Properties=species:S:1:pos:R:3 -1491.414804949154=T 10.279441=T 10.97588=T -9.0764=T -7.1109=T -9.96=T 0.8026=T -0.2015=T 0.937=T 9.21072=T -0.33528=T 5.0875423352=T 6.3653544498=T 0.190611514=T pbc="F F F"
N        1.02641656       0.34876760       0.65885495
C        2.22872014       0.01484358       0.05065183
N        2.54436750      -1.11653387      -0.48235003
C        3.24209186       1.13682548      -0.00304839
C        2.66445228       2.54654998      -0.26996223
O        2.68728725       2.86501489       1.15892680
C        3.59013285       1.73712983       1.38161813
H        1.00647540       1.18196814       1.24538827
H        0.42019649      -0.40974866       0.95460543
H        1.78428529      -1.80397659      -0.36845672
H        4.08053643       0.80958718      -0.62622254
H        1.65145762       2.61199073      -0.69209358
H        3.35309062       3.19992116      -0.83244400
H        4.63816227       2.07386083       1.46002358
H        3.31720744       1.15514973       2.27495849
