18
Properties=species:S:1:pos:R:3 -1807.5246423231968=T 12.229934=T 12.97156=T -8.0172=T -5.9852=T -8.682=T 0.967=T 0.0711=T 1.472=T 8.36334=T -0.84082=T 5.8471549628=T 11.4533803304=T 0.253299163=T pbc="F F F"
C        3.15458914      -1.06841492      -0.78721038
C        2.61826708       0.09778259       0.03939931
N        3.34352634       1.33838584      -0.20055592
C        3.22225950       1.88948937      -1.56262771
C        3.37623193       3.37005923      -1.34903064
C        3.27202674       3.66696550      -0.04881600
C        3.03263403       2.41831452       0.75267851
H        2.61482684      -1.99298753      -0.53791634
H        4.22472638      -1.22253849      -0.58780467
H        3.02980381      -0.89357500      -1.86567417
H        2.72019067      -0.14232595       1.11030058
H        1.52582622       0.22229913      -0.15567344
H        2.23015178       1.66933751      -2.02724379
H        3.98889451       1.46729881      -2.23544819
H        3.51976724       4.07929633      -2.16382225
H        3.31489104       4.66263455       0.39167410
H        3.66989435       2.34327437       1.65193150
H        1.97371243       2.38979414       1.10550952
