18
Properties=species:S:1:pos:R:3 -1733.5450227201213=T 11.449384=T 13.02044=T -9.4809=T -7.2749=T -11.006=T 1.008=T 0.0657=T 3.114=T 10.34636=T -2.82359=T 8.9037942194=T 11.6501089166=T 0.12388212=T pbc="F F F"
C        2.12680211       1.43445307       2.27716626
C        2.87550167       1.41623415       0.95770708
O        3.85355371       2.45503120       0.97011569
C        4.58583124       2.51369090      -0.24994694
C        5.57651643       3.64578219      -0.17014904
C        6.94751923       3.43694343       0.36389622
N        6.72371678       3.53211119      -1.09710316
H        1.36412191       0.64331361       2.29089721
H        1.62684991       2.40147234       2.42619957
H        2.81524124       1.26779369       3.11710691
H        2.17727227       1.56770582       0.10933816
H        3.37153064       0.43647089       0.80227113
H        3.89533520       2.67392048      -1.10403199
H        5.12908156       1.56607132      -0.43648639
H        5.13369334       4.63513737      -0.01674243
H        7.23823087       2.44328550       0.71402231
H        7.42773875       4.27044433       0.88175944
H        6.99036315       4.46473853      -1.42635003
