16
Properties=species:S:1:pos:R:3 -1526.2141954953781=T 9.27413=T 10.19804=T -9.8514=T -7.5311=T -11.929=T 0.8654=T -0.1852=T 2.649=T 11.60394=T -2.38029=T 9.618461922=T 9.6613238822=T 0.068694006=T pbc="F F F"
C        1.14516754      -0.24712140       0.23804654
C        2.56262814       0.11802224      -0.21849518
C        2.88436447      -0.54135707      -1.56891745
O        4.24283296      -0.39667400      -1.97757993
C        2.70594445       1.64357338      -0.28452208
O        4.01985125       2.09601504      -0.68058379
H        0.90352176       0.21045556       1.20851460
H        1.03421406      -1.33544892       0.34392924
H        0.39258321       0.09583021      -0.48960874
H        3.28796575      -0.26803254       0.52255380
H        2.19130974      -0.13412652      -2.33624800
H        2.69533393      -1.62479462      -1.50507929
H        4.45137345       0.55373098      -1.86391316
H        2.42351234       2.09812850       0.68222170
H        2.02477312       2.04845088      -1.05076764
H        4.62896383       1.90852827       0.05604936
