13
Properties=species:S:1:pos:R:3 -1343.5138497259668=T 12.755189=T 13.29895=T -7.8786=T -6.0811=T -8.721=T 0.9163=T -0.4509=T -0.004=T 7.81747=T 0.76079=T 3.271308617=T 10.7972836142=T 0.721207231=T pbc="F F F"
S        1.70204007       0.04370375       1.59315395
C        2.69921033       0.00849491       0.25583989
N        3.17156526      -1.11338228      -0.39380130
C        4.24329541      -0.79809872      -1.30242648
C        5.45052767      -0.05779742      -0.75307494
C        4.27342180       0.71722188      -1.31974317
N        3.21545677       1.09553308      -0.41909957
H        3.07991462      -2.00955432       0.07403174
H        4.31474961      -1.39655011      -2.21062089
H        5.60188253      -0.04849018       0.32675601
H        6.35290739      -0.08267827      -1.36424185
H        4.36823368       1.29144358      -2.24133399
H        3.15945485       2.00516409       0.02792059
