12
Properties=species:S:1:pos:R:3 -1266.838127036842=T 8.906114=T 9.4213=T -10.1665=T -8.1443=T -10.665=T 0.2512=T -1.5501=T -0.679=T 10.14413=T 1.21158=T 4.1964673518=T 5.7478793726=T 0.410981832=T pbc="F F F"
C        2.67599317      -1.66998749      -0.94702191
O        3.93251969      -1.06467456      -0.57007791
C        3.91039902       0.30169645      -0.51940198
O        2.92206356       0.97150679      -0.76726636
C        5.24578645       0.81780439      -0.12518295
C        5.46611348       2.13271168      -0.00767967
H        2.85091701      -2.75006855      -0.91537140
H        2.38637473      -1.35196710      -1.95731815
H        1.88505748      -1.38142662      -0.24254823
H        6.02594083       0.07744256       0.06016714
H        4.65988093       2.84265722      -0.20205099
H        6.44219364       2.52281525       0.28034241
