12
Properties=species:S:1:pos:R:3 -1316.4444268732414=T 9.694275=T 10.07606=T -9.6403=T -7.5769=T -10.839=T -0.6875=T -2.5115=T -1.301=T 10.38811=T 1.82374=T 3.4053746788=T 5.543662032=T 0.347445859=T pbc="F F F"
N        1.02298102       0.28920722      -0.17633257
C        2.33022456       0.27192828       0.24234515
O        2.84119598      -0.69210653       0.81329433
C        3.12397450       1.52400432       0.00338534
C        2.62981502       2.76791051       0.13531304
C        4.58886626       1.32463956      -0.25986616
O        5.34659973       2.23255110      -0.56002092
H        0.71204031       0.96566102      -0.86491549
H        0.50707928      -0.58316016      -0.10064591
H        1.58397309       2.95955144       0.37838932
H        3.30459863       3.62113250       0.03415638
H        4.93716162       0.27186076      -0.16420251
