13
Properties=species:S:1:pos:R:3 -1295.8140369352461=T 8.121965=T 8.82793=T -9.281=T -7.1707=T -10.568=T 1.2001=T -0.6029=T 0.286=T 9.62867=T 0.39977=T 3.752932234=T 11.8282148056=T 0.220537201=T pbc="F F F"
C        0.90958139      -0.08999596       0.04577134
C        2.44527176      -0.02093212      -0.02621235
C        2.92154298       1.42685391      -0.01659320
C        3.07023713       2.10721457      -1.36329795
O        3.15335717       2.01246797       1.03208179
H        0.57228413      -1.13541245       0.06214388
H        0.43925203       0.39951453      -0.81975440
H        0.54421471       0.40269162       0.95742782
H        2.79950903      -0.53160977      -0.93556196
H        2.88124237      -0.52041873       0.85027648
H        3.93715667       1.67613114      -1.88899743
H        3.22391901       3.18368284      -1.23328820
H        2.19329161       1.92120245      -2.00096582
