18
Properties=species:S:1:pos:R:3 -1744.7768004531092=T 11.075265=T 12.25754=T -9.4724=T -7.3111=T -10.939=T 0.7786=T -0.1991=T 2.809=T 10.36836=T -2.50978=T 8.7483653698=T 12.7779723628=T 0.10491183=T pbc="F F F"
C        3.55509099      -0.45046017      -1.82564390
C        2.96695344      -0.30194964      -0.41869459
O        3.42218399      -1.34896620       0.44753133
C        3.23242005       1.07818499       0.21485000
C        4.70527591       1.41504239       0.34377566
C        5.30380005       1.85016252       1.63427782
N        5.51052208       0.46172604       1.16464227
H        3.13792132       0.30030051      -2.51536113
H        3.32069620      -1.44887884      -2.21787805
H        4.65016629      -0.34425993      -1.81611437
H        1.87168842      -0.42815034      -0.49073018
H        4.23272909      -1.00415073       0.88827033
H        2.76671745       1.08042450       1.21308622
H        2.73605094       1.86515987      -0.37649476
H        5.19062902       1.79667684      -0.55977839
H        4.66259193       1.94037502       2.51429813
H        6.15526983       2.53358476       1.60854063
H        6.44977301       0.36270841       0.76865298
