20
Properties=species:S:1:pos:R:3 -1934.0150685779784=T 12.51741=T 13.92244=T -8.6053=T -6.4724=T -10.05=T 0.9284=T 0.0243=T 3.054=T 9.31533=T -2.69121=T 8.0981951844=T 10.7778426094=T 0.200078059=T pbc="F F F"
C        1.51270776       0.62264016       0.78499439
N        2.95456035       0.71341124       0.99289722
C        3.64722442       1.36194058      -0.12138007
C        5.14935902       1.40687118       0.09831131
C        5.60552984       2.20196193       1.30712267
C        5.93654096       0.16857828      -0.28818171
C        6.02248250       1.42154309      -1.13466661
H        1.05279274       0.06843286       1.61517046
H        1.21822005       0.13170911      -0.16814237
H        1.07920059       1.63513966       0.78185438
H        3.34234999      -0.22648463       1.11139089
H        3.25749041       2.39364190      -0.20138817
H        3.43666820       0.87125925      -1.09966050
H        6.69697195       2.14834683       1.42803785
H        5.13238124       1.82205322       2.22365408
H        5.32864074       3.26340483       1.20189890
H        5.39306613      -0.68265112      -0.70361632
H        6.80113186      -0.09959803       0.32082190
H        6.94417022       2.00399288      -1.09316632
H        5.53787104       1.40831677      -2.11258197
