14
Properties=species:S:1:pos:R:3 -1479.8975960919718=T 12.786912=T 13.41465=T -8.5978=T -6.677=T -8.227=T 0.7341=T -0.7914=T -0.022=T 7.69156=T 0.74074=T 4.0098808204=T 10.4723783012=T 0.43682648=T pbc="F F F"
C        0.83305295      -0.03289911      -0.00634012
C        2.32979071      -0.03339777      -0.00261453
C        3.19858745       1.04154247      -0.00668286
C        2.79483503       2.49003005      -0.01517482
N        4.54324986       0.72060560      -0.00276776
C        4.72005827      -0.57369685       0.00390452
S        3.25115573      -1.51526471       0.00653285
H        0.45832421       0.99866856       0.00138701
H        0.41968555      -0.54486590       0.87543483
H        0.42430034      -0.52965149      -0.89904627
H        3.69744898       3.11170189      -0.00609400
H        2.18892995       2.75167565       0.86491443
H        2.21038828       2.74707808      -0.91106845
H        5.69177268      -1.06448646       0.00832516
