8
Properties=species:S:1:pos:R:3 -868.8625825276289=T 9.762704=T 11.12592=T -11.7413=T -9.6804=T -11.29=T -0.8245=T -2.7549=T -1.99=T 10.87918=T 2.44944=T 4.3760610728=T 8.447104187=T 0.058851873=T pbc="F F F"
O        0.99934813       0.03680935      -0.04609021
S        2.43946482      -0.08772908       0.10713026
O        3.07350274      -0.68566832       1.27052773
C        3.09537857      -0.79016539      -1.31064086
C        3.53053817      -1.35428299      -2.29344163
C        3.11074082       1.54221217      -0.05572459
N        3.52532896       2.63362809      -0.11005838
H        3.91791780      -1.84822382      -3.16422232
