20
Properties=species:S:1:pos:R:3 -1929.5647031648973=T 12.478285=T 13.83793=T -8.895=T -6.8489=T -10.472=T 0.9432=T 0.0624=T 3.215=T 9.76158=T -2.89366=T 8.6730438748=T 12.2400343046=T 0.210589896=T pbc="F F F"
C        0.86524702      -0.52432826       0.17763497
C        2.36316432      -0.42200954      -0.13088462
C        2.76505564      -1.35634402      -1.27703490
C        2.74190422       1.03507927      -0.43143416
N        4.18624138       1.20452873      -0.61194096
C        4.68725179       2.56611643      -0.41072573
C        4.93773634       1.50735771       0.61175491
H        0.58010750       0.11423955       1.02747189
H        0.58366502      -1.55858017       0.42366852
H        0.26296681      -0.21551092      -0.69227767
H        2.92231553      -0.72475915       0.77403940
H        2.19742539      -1.11461217      -2.19069292
H        2.55771999      -2.40608292      -1.02190363
H        3.83347230      -1.25531300      -1.50900690
H        2.35604840       1.69070950       0.38119746
H        2.25007268       1.35532827      -1.36754269
H        3.96040082       3.34293560      -0.14787760
H        5.48431968       2.88412337      -1.08666246
H        5.92119098       1.03968731       0.69559519
H        4.37481417       1.58378441       1.54907190
