16
Properties=species:S:1:pos:R:3 -1621.9396756303586=T 10.962385=T 12.61=T -10.2335=T -8.0125=T -11.847=T 0.8248=T -0.1744=T 1.409=T 11.43898=T -1.05654=T 5.3863609938=T 11.7392920464=T 0.341289307=T pbc="F F F"
C        0.93609038      -0.04939641       0.07560254
C        2.44912950      -0.13509883       0.03670829
O        2.98252461       1.19407949       0.01027650
C        4.39891974       1.19997853      -0.03023670
C        4.83820175       2.66932189      -0.05322216
C        6.28852442       2.80547221      -0.09815404
N        7.45106044       2.89190265      -0.13467924
H        0.50340471      -1.05899868       0.09746794
H        0.55264472       0.47297644      -0.81138866
H        0.59953782       0.49141670       0.97055330
H        2.78948642      -0.68859466      -0.86054070
H        2.83640844      -0.67181506       0.92510691
H        4.77372970       0.67806121      -0.93190184
H        4.82495883       0.69073072       0.85578158
H        4.45427203       3.18200885       0.84178787
H        4.40061651       3.17018496      -0.93012160
