14
Properties=species:S:1:pos:R:3 -1439.4426075153435=T 10.796282=T 11.86649=T -9.5524=T -7.3436=T -9.846=T 0.9484=T -0.2795=T 2.201=T 9.45298=T -1.76356=T 4.3769289748=T 10.5671655982=T 0.521771366=T pbc="F F F"
N        0.89027677       0.06815201       0.11498602
C        2.34133163       0.00499935      -0.00170469
C        3.13672942       0.98623655       0.87482820
O        3.95069865      -0.09240353       1.42636192
C        3.03322960      -1.09060598       0.86208372
C        3.69393166      -2.19313389       0.19330677
C        4.21981056      -3.12096048      -0.38734120
H        0.46229901      -0.65661574      -0.46835052
H        0.55342277       0.96066696      -0.25669449
H        2.73241319      -0.02341342      -1.03432796
H        2.51397889       1.46199405       1.65251450
H        3.75550266       1.73804466       0.36339417
H        2.34226086      -1.46502912       1.64030615
H        4.69522434      -3.93728142      -0.89188259
