14
Properties=species:S:1:pos:R:3 -1480.126154328696=T 10.97632=T 11.22268=T -8.3791=T -6.3333=T -8.868=T 0.9283=T -0.4716=T 1.075=T 8.48295=T -0.48561=T 5.7087245938=T 0.222002667=T pbc="F F F"
N        0.92337649      -0.15978488      -0.17989848
C        2.38588632      -0.02612470       0.02661154
C        3.13271667      -1.23590515      -0.48592698
C        3.87278162      -0.85955046      -1.53298812
O        3.79567830       0.49281590      -1.83129649
C        2.95556834       1.06457010      -0.87495882
C        2.74634762       2.38365903      -0.83692116
H        0.47646408       0.73855091       0.02673949
H        0.55000072      -0.83009790       0.49851282
H        2.65496316       0.19280269       1.08016877
H        3.04847568      -2.24307324      -0.08936826
H        4.52763148      -1.42287037      -2.19319756
H        3.19944396       3.05031275      -1.56844365
H        2.11051555       2.81288531      -0.06505311
