19
Properties=species:S:1:pos:R:3 -1766.2203241680365=T 11.419533=T 12.58623=T -9.4274=T -7.1397=T -10.626=T 0.7733=T -0.2105=T 2.823=T 10.02581=T -2.53466=T 8.4685041706=T 12.742599157=T 0.113377188=T pbc="F F F"
N        1.67798602       2.42158761      -1.81865058
C        2.51258678       2.60957543      -0.62227734
C        3.86270197       1.91003222      -0.80533064
C        4.80038346       1.98306224       0.40858339
N        6.04320563       1.19438576       0.26356108
C        5.23857553       3.41613178       0.75245198
O        6.15354833       3.41852784       1.83990779
H        0.79965819       2.93484833      -1.71624946
H        1.42125523       1.43457427      -1.90944159
H        2.04513039       2.24611778       0.31749437
H        2.66641670       3.69299121      -0.49867633
H        4.36522164       2.33366431      -1.69239569
H        3.67754654       0.84461072      -1.03269443
H        4.28302819       1.57984385       1.29696569
H        6.44559947       1.34846696      -0.66652473
H        5.84864398       0.19441596       0.33681993
H        4.37606899       4.03255447       1.04566542
H        5.68988550       3.87890677      -0.15259068
H        6.69123747       2.60994249       1.68314183
