18
Properties=species:S:1:pos:R:3 -1749.134678799878=T 11.272136=T 12.65482=T -9.4914=T -7.2638=T -10.744=T 0.8048=T -0.1876=T 2.947=T 10.13887=T -2.61406=T 8.6853928804=T 12.0114909108=T 0.137764196=T pbc="F F F"
N        1.39792908       0.50431555      -1.39488226
C        2.81150218       0.27651916      -1.04289486
C        3.12470299       1.03257948       0.25802331
O        2.12830623       0.72116862       1.23191988
C        4.48885767       0.69012306       0.80064510
C        5.70190048       1.45761705       0.32109015
C        5.18987915       1.65110842       1.72830565
H        1.06200442      -0.20940926      -2.04217351
H        1.28431813       1.40592331      -1.86442522
H        3.53150216       0.57010682      -1.82860149
H        2.93879406      -0.80104456      -0.85304217
H        3.10628297       2.12526478       0.03713265
H        1.31060497       0.61187410       0.69521182
H        4.63058123      -0.37407943       1.00932134
H        5.54220048       2.26861743      -0.39212100
H        6.63196653       0.90766841       0.17653715
H        5.76943507       1.23482010       2.55216340
H        4.67562221       2.58477697       1.96012007
