19
Properties=species:S:1:pos:R:3 -1870.5124278044243=T 11.483747=T 13.00998=T -9.6599=T -7.6318=T -11.764=T 0.8998=T -0.0199=T 2.613=T 11.49632=T -2.27713=T 9.1302422498=T 10.8319624984=T 0.190180132=T pbc="F F F"
C        2.00830660      -1.61852407      -0.36446174
C        1.68962357      -0.13323329      -0.16345358
C        2.91086976       0.71764704       0.14606925
C        3.68196747       0.42660730       1.42393618
C        2.84299938       0.57154355       2.69741371
C        3.61062807       1.38221162      -0.97093844
O        2.72349147       2.13738453      -0.12114303
H        1.10276723      -2.17617112      -0.64123862
H        2.41096834      -2.07832920       0.54987393
H        2.74903573      -1.76348429      -1.16530143
H        0.95518905      -0.01352657       0.64964436
H        1.21621647       0.27963324      -1.06725538
H        4.53646852       1.11938691       1.46446343
H        4.10519191      -0.59031468       1.36260997
H        2.39033705       1.57186317       2.75302479
H        3.46724931       0.43289816       3.59105356
H        2.03320565      -0.17096563       2.74411430
H        3.25548955       1.23110011      -1.99718011
H        4.67382486       1.63069322      -0.87367114
