20
Properties=species:S:1:pos:R:3 -1897.3027902370825=T 11.824376=T 12.942=T -9.2972=T -7.1752=T -10.497=T 0.7238=T -0.2471=T 2.846=T 9.90924=T -2.57875=T 8.4224557702=T 12.5776233854=T 0.070019565=T pbc="F F F"
C        1.58233648      -0.92509325       0.02709048
C        3.06737068      -0.54895083       0.08660728
N        3.90680152      -1.31371128      -0.87211111
C        3.28141355       0.95588927      -0.14331530
C        4.73078855       1.45858801       0.02178938
C        5.28595811       1.26259253       1.43806961
O        5.60494226       0.88690350      -0.95749872
H        0.99933707      -0.38945361       0.79178211
H        1.44256890      -2.00451978       0.19060399
H        1.15658398      -0.67280092      -0.95782280
H        3.44779202      -0.80484948       1.09032512
H        3.50301259      -1.23139029      -1.81159480
H        3.88195598      -2.31037395      -0.63995605
H        2.62863677       1.51178312       0.54998584
H        2.94529102       1.21064396      -1.16463468
H        4.72073017       2.54323503      -0.18903291
H        5.36103789       0.19598799       1.69782580
H        4.65681432       1.76117548       2.19257386
H        6.29700193       1.68742298       1.49401313
H        5.34128621      -0.06586849      -1.00404025
