19
Properties=species:S:1:pos:R:3 -1876.0891944131931=T 12.668021=T 13.90782=T -9.4624=T -7.3212=T -9.262=T 1.1782=T -0.1296=T 1.237=T 8.70021=T -0.60253=T 6.324401874=T 0.414695437=T pbc="F F F"
C        0.87711774      -0.26374959       0.08113165
C        2.41025006      -0.17673125      -0.01730539
C        2.94015461      -1.09859031      -1.12997425
C        2.84762482       1.24392746      -0.25239023
C        3.64615608       1.96414909       0.54887273
C        4.04859834       3.38210623       0.28032069
O        3.62233031       4.27933104       1.32362953
H        0.49394332       0.36240182       0.89922144
H        0.55542443      -1.30026063       0.26168875
H        0.40451302       0.07519776      -0.85458190
H        2.83992647      -0.51079013       0.94345014
H        2.54945067      -0.79063663      -2.11287514
H        2.62769479      -2.13915028      -0.95662627
H        4.03763455      -1.07136234      -1.17966544
H        2.47469121       1.70844214      -1.17735606
H        4.02542394       1.52521954       1.47986806
H        3.66471138       3.70554723      -0.70567842
H        5.14545488       3.48142239       0.25970678
H        2.66464938       4.14072647       1.43740334
