15
Properties=species:S:1:pos:R:3 -1408.6581116619423=T 10.588582=T 12.23569=T -10.4487=T -8.4989=T -11.03=T 0.8392=T -0.1507=T 0.042=T 10.66519=T 0.28408=T 5.55147315=T 12.3015437592=T 0.236918147=T pbc="F F F"
C        1.21247777      -0.44468081      -0.44215387
C        2.70211118      -0.36419434      -0.18616750
O        3.08730189       1.04181063      -0.33294814
S        4.69948383       1.32178123      -0.09798689
C        4.61972805       3.08574076      -0.36357356
O        5.04046078       1.04427816       1.29889663
O        5.46260888       0.69107818      -1.17699868
H        0.88244668      -1.48765031      -0.33864426
H        0.96815324      -0.10446678      -1.45729027
H        0.65500059       0.16688936       0.27978614
H        3.27340913      -0.96123863      -0.91318782
H        2.95959362      -0.69232277       0.83233010
H        4.25560549       3.26568462      -1.37966451
H        5.64682688       3.44799065      -0.24446324
H        3.96007200       3.51943005       0.39413586
