12
Properties=species:S:1:pos:R:3 -1148.1735058792756=T 7.642735=T 8.30367=T -9.2773=T -6.9486=T -10.441=T 1.0282=T 0.0682=T 3.379=T 9.92718=T -3.06619=T 8.5162759764=T 11.8642947316=T 0.136572236=T pbc="F F F"
N        0.98896131      -0.01770883      -0.20194275
C        2.40727412      -0.09086602       0.06915947
C        3.28101799      -0.78212888      -0.96335703
C        3.32023680       0.72055976      -0.80111932
O        4.41840472       1.33181615      -0.15711739
H        0.56480782       0.74712951       0.32883878
H        0.52669983      -0.88047900       0.09456069
H        2.76033405      -0.19081689       1.10417625
H        2.78869555      -1.18002865      -1.85123552
H        4.13338255      -1.34866903      -0.58755278
H        2.83401443       1.31717479      -1.58020642
H        5.16924083       1.31204709      -0.77638397
