14
Properties=species:S:1:pos:R:3 -1393.5867256179256=T 9.804675=T 10.39142=T -8.9341=T -6.9245=T -9.758=T 0.7596=T -0.2219=T 1.05=T 9.00632=T -0.45637=T 4.9964126252=T 12.045115914=T 0.319750121=T pbc="F F F"
N        2.59030153      -1.11240613      -0.71109585
C        2.21564206       0.20551783      -0.45156922
N        1.02742627       0.62232804      -0.17576768
C        3.36048687       1.16792885      -0.45626248
C        3.15411223       2.53305957      -1.09735043
C        3.26618722       2.42034293       0.39224760
H        3.44734111      -1.25187580      -1.24012106
H        1.84253458      -1.75177056      -0.96720517
H        0.33667507      -0.13697849      -0.22549423
H        4.35167479       0.72155865      -0.56072455
H        2.15897978       2.70967851      -1.50616823
H        3.98762536       2.95394768      -1.66044380
H        4.17953382       2.76356424       0.87836741
H        2.34328931       2.51578467       0.96456768
