17
Properties=species:S:1:pos:R:3 -1723.0645920895815=T 12.077431=T 13.86482=T -9.4436=T -7.144=T -9.319=T 0.8136=T -0.1021=T 2.381=T 8.88813=T -1.91381=T 4.1362845474=T 9.945474997=T 0.767229103=T pbc="F F F"
C        0.94607200      -0.02120988       0.00885665
C        2.40210714      -0.00904455       0.00746810
C        3.61867316      -0.00921232      -0.00017001
C        5.07949108       0.00643504      -0.00242943
C        5.69091162       1.42331854       0.01343403
C        5.35784430       2.22894454      -1.24066540
O        5.96230704       3.52871188      -1.24499698
H        0.53818684       1.00094923       0.01311838
H        0.55168726      -0.54086130       0.89508739
H        0.55189714      -0.53308094      -0.88202345
H        5.44933992      -0.54027217      -0.88816951
H        5.44875240      -0.55332460       0.87284814
H        6.78516437       1.34359298       0.10635567
H        5.32495265       1.96108329       0.90454704
H        4.26213104       2.29688753      -1.36516649
H        5.75811693       1.72016126      -2.13204166
H        5.54708510       4.04833147      -0.53463246
