16
Properties=species:S:1:pos:R:3 -1482.2779772426384=T 11.029373=T 12.37168=T -10.3644=T -8.4607=T -10.636=T 0.7792=T -0.2691=T 0.093=T 10.29412=T 0.36151=T 5.6226659112=T 10.9499599746=T 0.119591139=T pbc="F F F"
C        0.97486227       0.07879718      -0.05506873
C        2.49873291       0.00469304      -0.04960701
C        3.08256122      -0.83677094      -1.18052275
S        3.22458229       1.68147723      -0.05436874
N        2.69710201       2.30722881      -1.55002177
O        2.56944147       2.45932884       1.00531065
O        4.68479928       1.54031073      -0.12538362
H        0.60038474       0.70202826       0.76609887
H        0.56349274      -0.93387960       0.06201014
H        0.60931857       0.48577867      -1.00856358
H        2.85955223      -0.36383901       0.92588170
H        2.76195524      -0.44943267      -2.15806773
H        2.71726089      -1.86946037      -1.08802144
H        4.17865026      -0.85237573      -1.14468279
H        3.52436411       2.54517877      -2.10270226
H        2.14131976       3.14558679      -1.36378095
