16
Properties=species:S:1:pos:R:3 -1546.6571335918907=T 10.579861=T 11.27044=T -9.6545=T -7.6402=T -11.065=T 1.72=T -0.1864=T 0.088=T 10.22864=T 0.45226=T 4.2286913132=T 6.4899975756=T 0.201962999=T pbc="F F F"
C       -0.51851669      -1.64429730       1.32017901
C        0.54773313      -1.17113848       0.34396053
C        1.64962916      -2.19121446       0.10846346
O       -0.01384521      -0.92477405      -0.99090023
N       -0.87455962       0.18995676      -0.97486753
C       -2.18098235      -0.00809661      -1.36632964
O       -2.92076113       0.89963871      -1.71834391
H       -1.32268674      -0.90307945       1.41709918
H       -0.07704078      -1.79177616       2.31618707
H       -0.95085033      -2.59982536       0.98861606
H        0.98320830      -0.21806430       0.69555840
H        1.23001442      -3.12626826      -0.28978677
H        2.15720078      -2.41807074       1.05545018
H        2.39291271      -1.80999246      -0.60390638
H       -0.41961936       1.04775180      -1.30119967
H       -2.47828629      -1.07612966      -1.27431976
