12
Properties=species:S:1:pos:R:3 -1289.1462075299494=T 9.258458=T 9.87757=T -9.6896=T -7.6116=T -10.946=T -0.5343=T -2.5495=T -1.705=T 10.73426=T 2.01054=T 2.94962694=T 7.562030126=T 0.113589543=T pbc="F F F"
O        2.69449590      -0.06977967       1.13591503
C        2.99915881       0.95869311       1.70422189
C        4.28578417       1.75935592       1.44766943
O        4.36562183       2.90882634       1.87153985
N        5.29367133       1.07321330       0.80895294
C        6.19148935       1.62526980      -0.18666334
C        5.26914668       0.47983988      -0.51962543
H        2.33485290       1.47263062       2.44067419
H        7.25239018       1.42414138      -0.02645886
H        5.94687135       2.62033684      -0.56540777
H        4.39869108       0.68641909      -1.14511701
H        5.67048640      -0.53283662      -0.58961093
