13
Properties=species:S:1:pos:R:3 -1418.678909212499=T 9.979237=T 10.5058=T -8.1121=T -6.1054=T -8.316=T 0.8936=T 0.0223=T 0.407=T 7.82452=T 0.10282=T 4.4883055986=T 6.5181176004=T 0.423206868=T pbc="F F F"
C        3.04956257      -1.18057545       0.53397246
O        2.31451913       0.02039919       0.29031046
C        3.06802893       1.14986659       0.15316536
C        2.53961668       2.39511081      -0.08508264
O        3.55686428       3.31774016      -0.17166643
C        4.72668145       2.64193625       0.01422543
C        4.49484435       1.30884362       0.21833062
H        2.30372263      -1.97897196       0.61715265
H        3.62174912      -1.11652513       1.47437345
H        3.73498211      -1.40712499      -0.29953767
H        1.53000827       2.76459395      -0.21030078
H        5.63084983       3.23890676      -0.02592922
H        5.24753065       0.54732020       0.39148631
