14
Properties=species:S:1:pos:R:3 -1414.889973512554=T 12.436761=T 12.33242=T -8.7252=T -6.8901=T -9.143=T 0.1489=T -1.5698=T -0.726=T 8.5109=T 1.13853=T 4.4452576594=T 0.393710602=T pbc="F F F"
C        0.83158221      -0.54502299       0.11368548
C        2.31555494      -0.20162595       0.13546175
N        2.54645744       1.14794673      -0.37323772
N        3.73061608       1.43867278      -0.88936320
C        4.04548484       2.68872019      -1.08777165
C        5.28277570       3.01580574      -1.69827632
N        6.28696338       3.36076595      -2.19356638
H        0.67562184      -1.55727795       0.50880751
H        0.43081569      -0.50402880      -0.90799796
H        0.24834408       0.14437616       0.74235345
H        2.89231071      -0.87501287      -0.51201053
H        2.71956865      -0.30254644       1.15925742
H        1.98118658       1.90526634       0.03149900
H        3.38689786       3.52667112      -0.81150084
