15
Properties=species:S:1:pos:R:3 -1584.6555099925374=T 11.259912=T 12.40422=T -9.7052=T -7.5386=T -10.194=T 0.8174=T -1.132=T -0.154=T 10.03163=T 0.82297=T 3.6561239652=T 10.6989007232=T 0.523271535=T pbc="F F F"
C        2.75762541      -1.08529926      -0.54503197
C        2.44020891       0.03580011       0.44184063
C        3.02850945       1.39660827       0.02257687
C        2.51338854       2.56536845       0.88440443
O        1.58787134       2.48068648       1.66252962
C        4.48748808       1.43323651      -0.00369109
C        5.69982868       1.49327521       0.02808075
H        2.32309884      -2.03541268      -0.20481050
H        3.84211799      -1.22981822      -0.65293713
H        2.34572571      -0.86946975      -1.54283741
H        2.82440684      -0.21208390       1.44304381
H        1.35387260       0.16654148       0.55042786
H        2.66972665       1.64128845      -1.00039778
H        3.06142216       3.52638850       0.72335056
H        6.77006880       1.53147035       0.04375135
