21
Properties=species:S:1:pos:R:3 -2086.1088460014835=T 12.546833=T 13.80881=T -10.7927=T -8.4661=T -12.114=T 0.8978=T -0.0268=T 2.922=T 11.93285=T -2.57974=T 10.2791585188=T 11.6340775268=T 0.14438068=T pbc="F F F"
C        0.93933295       0.02103749      -0.04741247
C        2.46969247      -0.00449958       0.01522614
C        3.04500451       0.04957539      -1.41205658
C        3.04554771       1.14478816       0.87768091
C        4.46352978       0.68872903       1.28675200
C        4.44072575      -0.86747287       1.21484879
C        3.00867092      -1.24187371       0.77305371
H        0.50088171      -0.01656551       0.96178011
H        0.55035912      -0.83760213      -0.61691995
H        0.57591526       0.93658611      -0.53990435
H        4.14479598       0.03109450      -1.41631864
H        2.72485586       0.96853136      -1.92720827
H        2.69481080      -0.80834891      -2.00684242
H        2.41405510       1.26342017       1.77415557
H        3.04071177       2.11030549       0.34862750
H        5.21848922       1.09536065       0.59719396
H        4.72991497       1.05315379       2.28915708
H        5.18041641      -1.23005485       0.48591775
H        4.70036790      -1.33093577       2.17723647
H        2.97262811      -2.15783943       0.16286885
H        2.37418372      -1.41694939       1.65815384
