15
Properties=species:S:1:pos:R:3 -1577.2212545763641=T 12.583857=T 13.09776=T -9.0148=T -6.9344=T -8.627=T 0.407=T -1.1019=T 0.468=T 8.15233=T 0.12004=T 4.0683030236=T 11.2307014744=T 0.41232913=T pbc="F F F"
C        0.87620795       0.29971874       0.23282325
C        2.35513347       0.04039703       0.05109573
C        2.93265881      -1.17865016      -0.10091210
C        2.24763023      -2.50626498      -0.16697466
O        2.58021077      -3.21342840      -1.37732202
C        3.17815409       1.20663832       0.06279022
C        3.82981743       2.23505191       0.07513684
H        0.53267323       1.05548489      -0.48801671
H        0.68288951       0.70584889       1.23704717
H        0.27334011      -0.60691484       0.10828824
H        4.01921214      -1.21700396      -0.22100469
H        1.15423994      -2.41715193      -0.05137893
H        2.60915230      -3.15783316       0.64496058
H        2.37796817      -2.61662288      -2.12049585
H        4.42176184       3.12728051       0.08292292
