12
Properties=species:S:1:pos:R:3 -1287.1480338355964=T 9.198304=T 9.85078=T -9.7674=T -7.7112=T -9.634=T 0.9901=T -0.686=T -0.158=T 9.02208=T 0.69384=T 5.0364849004=T 6.8580748138=T 0.325595167=T pbc="F F F"
O        2.65248204      -0.63876485      -1.16464327
C        2.20463500       0.05248382       0.00834383
C        2.85853819       1.39947197       0.03795502
N        2.14808446       2.46377664       0.36908948
O        3.05572272       3.54130293       0.34709659
C        4.27233763       3.07017478      -0.01255574
C        4.22287989       1.72488482      -0.22209639
H        2.25686654      -1.52650410      -1.15167879
H        2.48800723      -0.50218449       0.92298832
H        1.11085420       0.19411485       0.01867975
H        5.06373246       3.81114498      -0.07763507
H        5.01979965       1.05881865      -0.53158373
