15
Properties=species:S:1:pos:R:3 -1598.8229535094838=T 10.376518=T 11.12371=T -9.072=T -6.9641=T -9.129=T 1.2675=T -0.3009=T 1.243=T 8.616=T -0.61779=T 6.104946654=T 0.30142982=T pbc="F F F"
C       -0.98597554      -0.04514630       1.14788962
C       -0.62745041       0.99770005       0.06768941
C        0.88167356       1.27571845       0.00469107
C        1.63083101      -0.03844574      -0.01034823
C        0.92328601      -1.17804467       0.00053698
C       -0.58350724      -1.02589460       0.02161897
O       -0.96453796       0.00663410      -0.96995726
H       -0.41089532      -0.06731952       2.08320577
H       -2.06578250      -0.05962766       1.34010124
H       -1.23816556       1.90832151      -0.01967191
H        1.11598731       1.86043020      -0.90140433
H        1.19173160       1.89578650       0.86457326
H        2.72262391      -0.03018757      -0.04829896
H        1.38698112      -2.16600681      -0.00931017
H       -1.14314999      -1.95969792      -0.12203546
