15
Properties=species:S:1:pos:R:3 -1604.3058829005834=T 10.638409=T 11.3459=T -8.9601=T -6.7689=T -8.927=T 1.0954=T -0.2825=T 1.297=T 8.44602=T -0.6743=T 5.898571957=T 0.234984376=T pbc="F F F"
O        1.00424082      -0.24108453       0.13414058
C        2.39117214       0.11235461      -0.04671430
C        2.67543883       1.37895789       0.73637680
C        3.72356466       1.23494225       1.56079352
C        4.27531868      -0.15282730       1.51570819
C        3.31256502      -1.22943367       1.98491037
C        3.40483912      -0.89391517       0.51393465
H        0.83732582      -1.04222281      -0.39192064
H        2.58141176       0.27402710      -1.12703177
H        2.04431138       2.26256847       0.64164425
H        4.11147042       2.00580220       2.22890697
H        5.34933253      -0.33057013       1.58584896
H        3.73665785      -2.18473868       2.29766243
H        2.42064090      -0.90800687       2.52503515
H        3.84342007      -1.63048338      -0.15970516
