13
Properties=species:S:1:pos:R:3 -1403.5811162308219=T 9.978196=T 10.64729=T -9.4945=T -7.3321=T -9.743=T 0.594=T -1.2578=T -0.055=T 9.32653=T 0.796=T 3.6756517602=T 6.6106979466=T 0.304650382=T pbc="F F F"
C        0.88777851       0.38339470       0.32012687
C        2.19602329       0.11225460       0.27463704
C        3.25492441       1.12929385       0.00025150
O        2.77280500       2.48761472      -0.22728245
C        3.48566091       3.03584000       0.91801171
C        4.05076784       1.65081434       1.22659506
O        4.79163412       1.17198822       2.04411640
H        0.15922235      -0.39992729       0.52758274
H        0.51989708       1.39348649       0.13501362
H        2.57181105      -0.90065979       0.44942378
H        3.92719865       0.79723187      -0.81455559
H        4.23799419       3.79048422       0.63419894
H        2.80961262       3.44903405       1.68491036
