14
Properties=species:S:1:pos:R:3 -1478.0394584162254=T 10.090858=T 11.64875=T -10.5481=T -8.38=T -11.802=T 0.8194=T -0.1675=T 1.386=T 11.41455=T -1.04646=T 5.3828025956=T 11.1680265514=T 0.342104273=T pbc="F F F"
N        1.09140037       0.05433908      -0.62046433
C        2.24961835      -0.04836902      -0.52724121
C        3.69861653      -0.15105490      -0.39440144
C        4.28033994       0.89950909       0.57537031
C        5.77933922       0.77177280       0.67625708
C        6.49331416       0.94625001       1.95161048
O        6.27491667      -0.37139047       1.40740778
H        4.14565317      -0.04214908      -1.39565889
H        3.94977840      -1.16203388      -0.03794117
H        3.83012097       0.76765631       1.56974259
H        4.02143759       1.91107500       0.22520276
H        6.33797943       0.97389317      -0.24802387
H        5.91980521       1.17670692       2.85588385
H        7.53426000       1.28527498       1.94797606
