15
Properties=species:S:1:pos:R:3 -1504.254729489455=T 11.560793=T 11.80437=T -8.8735=T -6.9828=T -9.513=T 1.0383=T -0.6322=T 0.063=T 8.96612=T 0.54907=T 4.3511894812=T 5.2610731408=T 0.470441924=T pbc="F F F"
C        0.90902279       0.16166835      -0.00185880
C        2.34041102      -0.28127320       0.06356160
C        2.66151086      -1.73046063      -0.20729630
N        3.22202834       0.61996543       0.35439299
N        4.53350772       0.23656622       0.42243996
C        5.50948807       1.15941107       0.72985122
O        6.69758026       0.88069417       0.80764590
H        0.82981001       1.23484904       0.20544865
H        0.29639229      -0.39122096       0.72860538
H        0.48114386      -0.04563695      -0.99588225
H        1.75312448      -2.29768150      -0.44089854
H        3.13756559      -2.20839908       0.66474182
H        3.35041367      -1.83872891      -1.06117496
H        4.83728784      -0.72814049       0.25427162
H        5.07459318       2.16822746       0.89413172
