13
Properties=species:S:1:pos:R:3 -1277.4652906186216=T 8.012013=T 8.69715=T -9.9583=T -7.6245=T -11.606=T 0.9835=T -0.0253=T 3.036=T 11.26666=T -2.83034=T 9.474328197=T 14.6969656778=T 0.182683921=T pbc="F F F"
O        0.94338970       0.01697766       0.07775814
C        2.36595327      -0.02051073       0.03951495
C        3.05266344       1.05439993       0.90220978
C        4.13569970      -0.00089740       1.26210752
C        3.12946716      -1.10886961       0.84416758
H        0.60329166      -0.62570440      -0.56861121
H        2.73181197       0.02149243      -1.00336343
H        2.41684243       1.28351908       1.77008426
H        3.35866782       1.99132519       0.41803391
H        4.99667616       0.04794102       0.58043246
H        4.50558010      -0.01535494       2.29511881
H        3.50714482      -1.99015377       0.30671459
H        2.51619176      -1.43266446       1.69784263
