15
Properties=species:S:1:pos:R:3 -1601.9557545036091=T 12.233682=T 12.31652=T -9.0284=T -6.9705=T -8.979=T 0.1343=T -1.4338=T -0.267=T 8.43481=T 1.00515=T 3.6407744984=T 5.2014234762=T 0.6975343=T pbc="F F F"
C        2.92913929      -1.12281617       0.24321151
C        2.27355534       0.04386779       0.09769834
C        2.87009935       1.37683822       0.00206553
C        2.07775559       2.46487113      -0.11675106
C        4.37552586       1.52478655      -0.00308069
C        4.98097860       1.25280781      -1.37335902
O        5.91330187       1.88086031      -1.83654641
H        2.38350909      -2.06407867       0.30890391
H        4.01688557      -1.18670864       0.30418333
H        1.17989124       0.02342718       0.04485574
H        0.99069752       2.36925014      -0.13562574
H        2.49247704       3.47104982      -0.18915293
H        4.83483580       0.80702969       0.69993400
H        4.68771383       2.52948367       0.31087527
H        4.50536400       0.41880119      -1.94870178
