15
Properties=species:S:1:pos:R:3 -1486.2308023516143=T 10.589682=T 10.90259=T -8.3296=T -6.3847=T -8.997=T 0.987=T -0.5929=T 0.45=T 8.40661=T 0.14538=T 4.8860154908=T 0.108797829=T pbc="F F F"
C        1.19666135      -0.02882090      -0.28191495
N        2.64755774      -0.09306604      -0.31505270
C        3.30714386      -1.23990971       0.33155731
C        4.73374432      -0.71830343       0.56581936
O        5.66851282      -1.04603599      -0.48129548
C        4.43527937       0.76555634       0.60826923
N        3.28638155       1.06720581       0.08330252
H        0.78545909      -0.88642335      -0.83121666
H        0.87523700       0.89644276      -0.77448865
H        0.79665940      -0.04237449       0.75114310
H        3.28331859      -2.14109257      -0.29534673
H        2.82144784      -1.45310014       1.30461769
H        5.18525820      -1.12329423       1.48043505
H        5.39457259      -0.55431232      -1.27767459
H        5.13738629       1.54873826       0.88978551
