17
Properties=species:S:1:pos:R:3 -1751.207824863552=T 11.490951=T 12.62346=T -8.0748=T -5.9711=T -8.606=T 0.9593=T 0.0368=T 1.386=T 8.08753=T -0.76613=T 5.7126301528=T 0.261290306=T pbc="F F F"
C        2.49262357      -0.45034605       1.49634414
C        2.64836718       0.00326540       0.03619043
C        3.20448423       1.38259282      -0.09801561
C        4.35121009       1.82477779      -0.64229230
C        4.46432559       3.31560968      -0.42612065
C        3.04045647       3.64868775       0.06540939
O        2.42338519       2.38247562       0.45490037
H        2.06422285      -1.46119627       1.54280452
H        1.82998926       0.22904135       2.04875934
H        3.46577280      -0.46612296       2.00766933
H        1.66411328      -0.02834089      -0.46144728
H        3.30903511      -0.68516706      -0.51041806
H        5.11096009       1.19636492      -1.09882724
H        5.23430734       3.56031112       0.32763145
H        4.71518285       3.87718409      -1.33878326
H        2.42405773       4.07671207      -0.74233371
H        3.00614636       4.31535061       0.93673913
