21
Properties=species:S:1:pos:R:3 -1959.2442819319774=T 12.561932=T 13.75685=T -8.8991=T -6.6456=T -10.345=T 0.8222=T -0.1414=T 2.919=T 9.81861=T -2.59155=T 8.3388272132=T 10.7435976762=T 0.108062798=T pbc="F F F"
C        0.91368849      -0.28471460       0.08685580
C        2.45516607      -0.32723022       0.05168253
C        2.97237205      -0.98346934       1.34105384
N        2.96747769      -1.12565616      -1.09016691
C        2.98264574       1.11849105      -0.09656834
C        4.50178703       1.29209079      -0.06764331
N        4.84324451       2.71221567      -0.28092502
H        0.51539125       0.17778647      -0.82989363
H        0.54080812       0.29658276       0.94504006
H        0.49987825      -1.30238779       0.16194865
H        2.70300540      -0.38421428       2.22272426
H        4.06343200      -1.10200356       1.31406363
H        2.52842610      -1.98342081       1.46829712
H        2.54978469      -0.77358009      -1.95775857
H        2.63729812      -2.09143406      -0.99781837
H        2.53983999       1.74954526       0.69103237
H        2.60153828       1.51934177      -1.05566362
H        4.95733991       0.59757552      -0.79725423
H        4.88696550       1.01412624       0.92642493
H        4.59571107       2.98121009      -1.23798424
H        5.85665973       2.83380529      -0.21294696
