15
Properties=species:S:1:pos:R:3 -1505.2896567958164=T 10.316922=T 11.27415=T -9.2666=T -7.2538=T -10.512=T 0.903=T 0.0005=T 0.702=T 9.66998=T -0.06451=T 4.6631010614=T 8.5881878564=T 0.152955318=T pbc="F F F"
C        1.17497518       0.38866926      -0.55617063
N        2.45033612       0.39865705       0.13491188
C        3.64643121       0.32469645      -0.51268961
O        3.78312900       0.23596515      -1.73051852
N        4.72548853       0.36741252       0.45819604
C        5.66638988      -0.78300113       0.32787350
C        6.05934255       0.56302953      -0.14642259
H        0.51005432      -0.38229705      -0.14159652
H        1.37159153       0.16563685      -1.61099474
H        0.67280657       1.36592564      -0.49081366
H        2.49521265       0.54616417       1.13868638
H        5.42934640      -1.52164125      -0.44165916
H        6.03386115      -1.17198511       1.27900807
H        6.72640567       1.18181519       0.45578479
H        6.07836925       0.71586274      -1.22757522
