19
Properties=species:S:1:pos:R:3 -1866.2546354381436=T 12.503031=T 13.77933=T -9.316=T -7.1164=T -9.191=T 0.9163=T -0.0049=T 1.4=T 8.56655=T -0.77629=T 6.394143999=T 0.425221744=T pbc="F F F"
C        1.53936700      -0.41221641      -0.10686902
O        2.87291268       0.07336145      -0.11746468
C        2.91678141       1.49608896      -0.05380291
C        4.38230245       1.93354117      -0.05591351
C        4.56152409       3.43428862      -0.01053170
C        4.13765732       4.21020850      -1.23134971
C        5.08666629       4.04172103       1.06493457
H        1.59220951      -1.50678789      -0.16751844
H        0.96039336      -0.03107608      -0.97017465
H        1.00905803      -0.12741184       0.82216628
H        2.41503099       1.85513403       0.86789366
H        2.37128245       1.92574285      -0.91828184
H        4.85437525       1.52697221      -0.96731072
H        4.88322791       1.46749530       0.80540365
H        4.65400782       3.83639284      -2.13073036
H        4.35999890       5.27995643      -1.12457955
H        3.05803586       4.10671087      -1.42473243
H        5.40069300       3.47397545       1.94310626
H        5.22296569       5.12470250       1.09690510
