14
Properties=species:S:1:pos:R:3 -1458.5680926780856=T 9.668095=T 10.51601=T -9.7466=T -7.6035=T -11.077=T 0.9358=T -1.0615=T -0.304=T 10.23116=T 0.85598=T 3.6508545602=T 12.3837092814=T 0.138966684=T pbc="F F F"
C        0.87603945      -0.13921478      -0.09081968
C        2.39276695       0.05819157      -0.21626383
C        3.00232215      -0.85693324      -1.28578301
O        2.52106680      -1.92239293      -1.61230737
C        2.74144254       1.50911758      -0.55251887
N        3.20971195       2.27446818       0.48424351
O        2.61492979       1.94567387      -1.69477314
H        0.47756533       0.39534662       0.78124453
H        0.64933994      -1.20788158       0.00851011
H        0.37519477       0.23607954      -0.99295822
H        2.88476235      -0.24543000       0.72866108
H        3.95814125      -0.49095959      -1.73310141
H        3.20587042       1.94088691       1.44116984
H        3.34655629       3.26720784       0.31672646
