12
Properties=species:S:1:pos:R:3 -1353.636997296403=T 10.759072=T 11.43497=T -10.1719=T -7.9891=T -9.938=T -0.1076=T -1.8389=T -0.488=T 10.45266=T 1.1456=T 3.6516108748=T 6.4854100936=T 0.294412647=T pbc="F F F"
O        1.80472108      -1.11934569      -0.64780292
C        1.70044159       0.01558002      -0.23024430
C        2.86603596       0.91695810       0.14628907
C        4.20465234       0.26059722       0.09363954
C        5.14201430       0.40003834       1.04956042
C        6.42189066      -0.21880258       0.97992124
N        7.48493964      -0.70682368       0.95506525
H        0.69790008       0.49972269      -0.10905224
H        2.65703403       1.36992405       1.12980038
H        2.82110022       1.75994903      -0.57318736
H        4.41035413      -0.36928496      -0.77484460
H        4.95774596       1.00951746       1.93912554
