15
Properties=species:S:1:pos:R:3 -1559.3539788565126=T 12.452856=T 12.80362=T -8.0129=T -6.1937=T -8.438=T 0.9754=T -0.5494=T 0.13=T 7.89323=T 0.40713=T 4.5806999658=T 0.348736545=T pbc="F F F"
C        0.78546294       0.34547188      -0.15005836
N        2.20867729       0.18300245       0.10589798
C        3.06564438       1.24767781       0.08467414
C        4.43117635       1.20613591       0.01852766
C        5.25809779      -0.05338015      -0.09693234
C        5.13260855       2.43953619       0.06129595
N        5.75336431       3.43539300       0.08769199
H        0.23996616      -0.51880125       0.24934179
H        0.54797111       0.44815719      -1.22317908
H        0.42196445       1.24035107       0.37216855
H        2.59941076      -0.72874825      -0.11473949
H        2.57400204       2.21941614       0.16954952
H        4.64965624      -0.96171323       0.00783284
H        6.02798741      -0.08884362       0.68734394
H        5.77648021      -0.10588514      -1.06656511
