17
Properties=species:S:1:pos:R:3 -1676.936388499793=T 12.333427=T 12.66253=T -8.4177=T -6.6119=T -9.309=T 0.7217=T -0.9407=T 0.135=T 8.42849=T 0.32006=T 4.6095639066=T 5.7618401962=T 0.373303493=T pbc="F F F"
C        0.58467651      -0.26336036      -0.12958175
N        1.96578071      -0.20229892       0.32425313
C        2.45764356      -1.49221742       0.81788762
C        2.83130968       0.64170023      -0.39125813
N        2.54783383       1.29654592      -1.47354250
C        4.16820454       0.92362631       0.19429496
C        4.47930086       0.92109210       1.49825517
H        0.17793949       0.75071388      -0.24228212
H       -0.01036203      -0.78817178       0.63025207
H        0.46616514      -0.80577823      -1.08905117
H        1.90963806      -1.78065805       1.72771040
H        3.52315858      -1.42769455       1.05452909
H        2.31681455      -2.28845888       0.06180238
H        1.60611720       1.06992748      -1.81706216
H        4.90019938       1.25124008      -0.54688844
H        3.75057841       0.65245778       2.26533697
H        5.47318153       1.21885443       1.83478447
