15
Properties=species:S:1:pos:R:3 -1554.3752517546302=T 10.693478=T 11.64953=T -9.4352=T -7.4868=T -10.644=T -0.1012=T -1.8967=T -0.813=T 9.508=T 1.37523=T 3.4320068716=T 5.7444325618=T 0.498410274=T pbc="F F F"
O        0.59449401       0.15247602       0.90618173
C        1.86674408      -0.36272471       0.48436691
C        2.76565376       0.83704041       0.23313524
C        4.16105633       0.44995872      -0.22762687
O        4.48720271      -0.72736595      -0.37568866
C        5.15465547       1.52222324      -0.50630514
C        4.93553306       2.84036148      -0.38391621
H        0.00768517      -0.60446541       1.06956799
H        1.77312642      -0.96097240      -0.43807543
H        2.31432810      -1.01151964       1.25669422
H        2.83950203       1.44201921       1.15229176
H        2.30218338       1.49352377      -0.52234480
H        6.12576355       1.14126608      -0.83431687
H        3.97440578       3.24225674      -0.05783452
H        5.71863616       3.56621245      -0.60767937
