18
Properties=species:S:1:pos:R:3 -1804.1220573429655=T 13.749938=T 14.17485=T -8.3466=T -6.3357=T -8.269=T 0.8111=T -0.6474=T 0.415=T 7.7309=T 0.15503=T 5.0729615816=T 0.741370899=T pbc="F F F"
C        1.29694000       2.90870088       0.10585651
C        2.77091952       2.65290965       0.06124364
C        3.33489750       1.42890470       0.11559429
C        4.76290673       1.11453697       0.05717844
C        5.17754103      -0.16984264       0.08497367
C        5.74657606       2.26432405      -0.04235514
N        7.14832535       1.83516925       0.02427752
H        1.02734750       3.54861802       0.96229217
H        0.72585311       1.97303183       0.18484298
H        0.95701614       3.44246908      -0.79697160
H        3.40862335       3.53941631      -0.02380827
H        2.67114633       0.55933114       0.19764730
H        4.45646127      -0.98571831       0.15936187
H        6.23481420      -0.42065388       0.00733130
H        5.47403429       3.01227649       0.72996096
H        5.59437665       2.76508312      -1.01439888
H        7.37436866       1.54194197       0.97852161
H        7.75617231       2.62941137      -0.18273835
