14
Properties=species:S:1:pos:R:3 -1400.448862688523=T 10.222454=T 10.68565=T -9.2304=T -7.1755=T -10.552=T 0.9=T -0.9905=T -0.087=T 9.65946=T 0.60381=T 3.763843002=T 6.624447994=T 0.408387455=T pbc="F F F"
C        2.05175114      -1.72291716       1.57299710
C        1.58147850      -0.59865924       0.68664199
O        0.41786280      -0.23228660       0.62127105
C        2.61411303       0.11948554      -0.19294681
O        3.96141437      -0.36018193      -0.10549377
N        4.58402927       0.20138591       1.02990251
C        5.79542591      -0.20002842       1.13932926
H        2.62232782      -2.45940088       0.98774072
H        1.19054770      -2.19334783       2.05863500
H        2.74565799      -1.32754510       2.33047910
H        2.57199794       1.19615509       0.03035488
H        2.31943678      -0.02737149      -1.24253113
H        6.35273893       0.19380776       1.98925427
H        6.26603781      -0.89182565       0.43167583
