16
Properties=species:S:1:pos:R:3 -1553.15367296509=T 10.10213=T 11.1391=T -9.2483=T -7.0961=T -10.249=T 0.7504=T -0.2396=T 2.864=T 9.77588=T -2.54206=T 7.9144975268=T 10.8470020002=T 0.103707437=T pbc="F F F"
N        0.85930102       0.28226673      -0.15973855
C        2.28182323       0.14860627       0.11821400
C        2.52614710       0.10277928       1.61791729
O        1.76446547      -0.93909954       2.22259160
C        3.09774250      -0.75765818      -0.77671246
C        3.32994283       0.74217586      -0.79294071
O        4.48908474       1.29191966      -0.20499528
H        0.61872471      -0.07161700      -1.08550224
H        0.56732651       1.26242483      -0.11430080
H        2.26082483       1.08900701       2.05192519
H        3.58589355      -0.07875029       1.83705996
H        0.89884236      -0.90064464       1.76438044
H        2.62254094      -1.21716433      -1.64620800
H        3.84680961      -1.37640026      -0.28045722
H        2.95060656       1.29190880      -1.66424771
H        5.24646404       1.06525580      -0.77349549
