14
Properties=species:S:1:pos:R:3 -1558.8236756612007=T 11.338326=T 11.99747=T -9.5669=T -7.5122=T -9.29=T 0.361=T -1.3376=T -0.069=T 8.80309=T 0.59875=T 4.966011258=T 5.0851989998=T 0.247612685=T pbc="F F F"
N        0.96269798       0.04061603       0.04931769
C        2.13196980      -0.00899433       0.01500024
C        3.55170291      -0.01538435      -0.02834179
C        4.32825114      -1.11785023      -0.09535745
C        5.78879564      -0.76649973      -0.06561865
C        5.79750359       0.76157701      -0.31957138
C        4.38147300       1.25538017       0.06153154
H        3.94787097      -2.13911740      -0.12323370
H        6.21294594      -1.02690293       0.92178789
H        6.37543346      -1.32873252      -0.80811711
H        5.97021840       0.94851979      -1.38955719
H        6.58799442       1.28064199       0.23769521
H        4.00783259       2.04709920      -0.60290832
H        4.33733015       1.65302730       1.08976303
