12
Properties=species:S:1:pos:R:3 -1294.2983701574376=T 10.566902=T 10.60547=T -8.7905=T -6.9044=T -9.223=T 0.1489=T -1.6288=T -0.754=T 8.73663=T 1.16675=T 4.3875917708=T 11.4729453212=T 0.277393311=T pbc="F F F"
N        1.04157818      -0.06281763       0.01722842
C        2.21295503      -0.07816176       0.01767426
C        3.62501803       0.00922821       0.00039453
N        4.38707647      -1.05234087       0.02943548
N        5.68397562      -0.64739639       0.10553995
C        5.81769514       0.77667000      -0.28383508
C        4.41362975       1.30950219       0.05024202
H        6.32757260      -1.33084665      -0.28891880
H        6.03386239       0.86690550      -1.36332447
H        6.61908467       1.26256544       0.28588874
H        4.05074210       2.06517190      -0.65610802
H        4.36407000       1.73733007       1.06522297
