13
Properties=species:S:1:pos:R:3 -1432.2408329431573=T 9.892345=T 10.51736=T -8.1834=T -6.1625=T -8.344=T 0.7479=T -0.2893=T 0.406=T 7.82639=T 0.11126=T 4.5149253928=T 6.3631227018=T 0.461854675=T pbc="F F F"
C        0.92195632       0.01944860      -0.00922005
C        2.41797822       0.00468617      -0.00162894
C        3.28214373       1.06713291       0.00514381
O        4.58342876       0.65091884       0.01049084
C        4.56290783      -0.72673980       0.00733501
C        3.26436274      -1.16004502      -0.00012218
O        2.87052511      -2.47385335      -0.00496036
H        0.54021735       1.04848484      -0.00281627
H        0.50252249      -0.48858770       0.87437118
H        0.51154438      -0.47445799      -0.90497014
H        3.12648484       2.14085021       0.00688740
H        5.52080633      -1.23097981       0.01105419
H        1.89814189      -2.50012790      -0.01003449
