17
Properties=species:S:1:pos:R:3 -1748.7163132409291=T 12.136782=T 12.87285=T -9.2924=T -7.2843=T -9.602=T -0.068=T -1.7408=T -0.785=T 9.48882=T 1.42214=T 3.3833423666=T 4.885482351=T 0.444845618=T pbc="F F F"
C        1.46160772       0.64213443      -1.53571950
C        1.82144725       1.14002681      -0.12650617
C        2.90370588       2.19416381      -0.13296213
C        2.50154160       3.55944386      -0.52498216
O        1.35005891       3.88190884      -0.80171205
C        4.18612371       1.90333759       0.20349367
C        5.39023180       2.79003410       0.23429270
H        0.66856267      -0.11753233      -1.48541756
H        2.33453526       0.19119609      -2.03014946
H        1.09863057       1.46851554      -2.16101893
H        2.14740378       0.29391400       0.49782301
H        0.92015514       1.56740279       0.33978130
H        3.31180709       4.32587395      -0.55433280
H        4.38698007       0.86584702       0.50090584
H        5.19944801       3.82442655      -0.06937620
H        6.17380659       2.37888268      -0.42240675
H        5.82120395       2.80416427       1.24831718
