13
Properties=species:S:1:pos:R:3 -1407.8930096913443=T 10.677962=T 12.21442=T -9.9542=T -7.615=T -9.523=T 1.8144=T -0.263=T -0.214=T 9.30026=T 0.75648=T 4.18204778=T 10.1935585844=T 0.798897338=T pbc="F F F"
C        0.92402334      -0.02764733      -0.10697319
C        2.37058549      -0.01035974       0.03355510
C        3.57922635       0.01827513       0.15369842
C        5.02126664      -0.00127836       0.28326152
O        5.48761176       1.34085951       0.66575977
C        6.82708697       1.43786621       0.81788378
O        7.63371630       0.54438753       0.67074452
H        0.50800772       0.97736071       0.05750215
H        0.45992442      -0.70695967       0.62305903
H        0.62574929      -0.35346907      -1.11427220
H        5.51322302      -0.28068664      -0.66101587
H        5.35371853      -0.71416933       1.05336914
H        7.07073016       2.48020106       1.10324784
