20
Properties=species:S:1:pos:R:3 -1944.8090221606556=T 13.23344=T 14.46436=T -9.0383=T -6.8488=T -9.007=T 0.9254=T 0.0123=T 1.44=T 8.48862=T -0.80479=T 6.2766796626=T 0.402387115=T pbc="F F F"
C        0.68649467       0.49314274       0.40750295
C        2.16046878       0.63391469       0.63920350
C        3.01167568       1.29442828      -0.15837816
C        4.49053647       1.42047562       0.05790831
C        4.99731119       2.87366230       0.15746696
C        4.41551907       3.60374916       1.37466467
N        6.47261665       2.85101262       0.11026503
H        0.39484612      -0.56673557       0.32744896
H        0.37148054       1.00370480      -0.51344095
H        0.10758878       0.91164012       1.24693349
H        2.56060935       0.14478402       1.53677697
H        2.61304618       1.78314307      -1.05826179
H        5.03332315       0.95268199      -0.78132883
H        4.78141421       0.87202802       0.97236710
H        4.66858427       3.40254578      -0.75616177
H        4.73046392       3.10804825       2.30768676
H        3.31537451       3.61249543       1.35490054
H        4.76553983       4.64635489       1.40999364
H        6.82526193       2.36928492       0.94488571
H        6.82863471       3.80894886       0.17741688
