15
Properties=species:S:1:pos:R:3 -1655.7217953536174=T 11.111437=T 11.68245=T -8.6079=T -6.4593=T -7.817=T 1.0967=T -0.462=T 0.882=T 7.52484=T -0.5537=T 4.2139245806=T 11.2392813056=T 0.378640694=T pbc="F F F"
C       -0.00642944       0.02831186      -1.39766489
C        0.03254842      -1.11782889      -0.34073443
C        1.27013610      -0.64969989       0.45293456
C        1.23580078       0.69053480       0.48175064
C       -0.02504107       1.12837943      -0.29239046
C       -1.24767936       0.62644331       0.50375471
C       -1.21330239      -0.71380026       0.47496691
H        0.89474106       0.06493880      -2.02671247
H       -0.91926012       0.01810134      -2.01067495
H        0.05596715      -2.15102484      -0.70637077
H        1.98039041      -1.31589281       0.93956644
H        1.91157104       1.37064477       0.99736802
H       -0.05489829       2.17619081      -0.61323246
H       -1.94833787       1.27103726       1.03162241
H       -1.87946644      -1.41551570       0.97385672
