15
Properties=species:S:1:pos:R:3 -1560.8575076827594=T 10.221991=T 11.31809=T -9.6695=T -7.4406=T -10.938=T 0.8717=T -1.1839=T -0.385=T 10.45085=T 1.00877=T 3.6808467736=T 8.2041288228=T 0.194175819=T pbc="F F F"
O        1.44481602      -0.39495750      -1.17053003
C        2.07771152       0.09714963      -0.25459926
C        2.79201463       1.42410669      -0.30737706
C        4.28052459       1.28165575       0.05777828
C        5.01253431       2.62151643       0.11902073
C        4.66230699       3.49984022       1.29627979
O        3.91895470       3.18530883       2.20820299
H        2.16985391      -0.44120561       0.72678025
H        2.30636395       2.08020790       0.43620290
H        2.65671136       1.86093846      -1.30767474
H        4.77629568       0.63703010      -0.68393604
H        4.37203111       0.78080631       1.03482435
H        4.86106651       3.21907752      -0.79872929
H        6.10767323       2.47261743       0.17010978
H        5.16266150       4.50345783       1.29086735
