17
Properties=species:S:1:pos:R:3 -1674.4685267278542=T 10.453038=T 11.80483=T -9.2675=T -7.0675=T -11.255=T 0.8827=T -0.1454=T 2.95=T 10.6419=T -2.68544=T 9.2323199236=T 10.3687755996=T 0.11940245=T pbc="F F F"
O        2.67877981       3.33180778      -0.47486953
C        2.32781148       1.96670020      -0.18999414
C        3.31825839       1.40827843       0.82029002
C        4.74396360       1.32012350       0.30195526
C        5.65609810       2.56579140       0.33123558
C        6.61931702       1.67904957       1.13727345
O        5.62141780       0.61922726       1.24299967
H        2.02958506       3.68107160      -1.10722173
H        2.35345740       1.35820481      -1.11495136
H        1.30550014       1.90518703       0.22550250
H        2.99599042       0.38928695       1.09222733
H        3.29518518       2.01277404       1.74155225
H        4.75328512       0.80383913      -0.67910640
H        5.22441003       3.39930121       0.89812453
H        6.01014538       2.93207705      -0.63943963
H        7.50960891       1.33712127       0.58042201
H        6.93016617       2.04275878       2.12936019
