16
Properties=species:S:1:pos:R:3 -1593.1271106765473=T 11.909683=T 13.69484=T -9.4993=T -7.2335=T -9.422=T 0.8325=T -0.2255=T 2.215=T 9.00372=T -1.75398=T 4.1633630898=T 9.8065858798=T 0.315771408=T pbc="F F F"
N        0.92116092       0.02997335      -0.00557908
C        2.38779912      -0.02468840      -0.02965383
C        2.96017028       1.40623771      -0.00787594
C        4.41706992       1.43250087      -0.00181416
C        5.63429657       1.42123160       0.01746356
C        7.09387328       1.46360745      -0.00187741
O        7.63158691       2.79697234      -0.01111719
H        0.53925914      -0.90697371       0.13655129
H        0.56579081       0.34834611      -0.91110357
H        2.81737671      -0.56462439      -0.89573706
H        2.72571619      -0.55095735       0.87565809
H        2.56044728       1.92895608       0.87621709
H        2.58701583       1.95628819      -0.89008714
H        7.46626197       0.88494637      -0.86908277
H        7.50317467       0.98855816       0.90328744
H        7.13025041       3.30055561      -0.67727936
