17
Properties=species:S:1:pos:R:3 -1609.4804051003478=T 11.728141=T 12.51871=T -7.9372=T -5.9396=T -9.209=T 1.0134=T 0.0839=T 0.723=T 8.74869=T -0.17256=T 5.0678905542=T 9.7068143456=T 0.199519208=T pbc="F F F"
C        4.35527626      -1.74511303       1.38178238
C        4.88755289      -0.38804903       0.97107382
O        3.74973310       0.46334285       0.68949116
C        4.04440042       1.73872959       0.33132037
N        5.23871649       2.18888791       0.23992162
N        5.40056712       3.54649395      -0.03878171
C        6.62324961       3.79599426      -0.79813176
H        5.19497213      -2.42119733       1.59517972
H        3.74913696      -2.19139034       0.58130845
H        3.73601036      -1.66952182       2.28622138
H        5.51843523      -0.44448771       0.06906065
H        5.49158391       0.08119689       1.76415213
H        3.12516307       2.31714430       0.15255374
H        4.58406504       3.94240306      -0.52383272
H        7.48080409       3.44657014      -0.20814558
H        6.72115599       4.88011532      -0.94627602
H        6.65110732       3.29320100      -1.78351762
