18
Properties=species:S:1:pos:R:3 -1720.0613181275808=T 10.410934=T 11.37854=T -9.9923=T -7.7566=T -11.904=T 0.8662=T -0.1421=T 2.714=T 11.47561=T -2.40177=T 9.6981601228=T 10.8979478476=T 0.122615969=T pbc="F F F"
C        0.99669199       0.01105066      -0.01031017
C        2.53290287      -0.04433732       0.01108856
C        3.00406621      -0.76995306       1.28323215
C        3.05139062      -0.78042823      -1.23464730
C        3.05237997       1.41146302       0.01235818
O        4.47826288       1.54301753       0.00949437
H        0.62945015       0.53512796      -0.90645307
H        0.59979002       0.53306225       0.87459149
H        0.57100014      -1.00373965      -0.01945981
H        2.65693750      -0.25267020       2.19211104
H        4.10213430      -0.84569377       1.32295685
H        2.61113246      -1.79735842       1.31356577
H        2.67848316      -0.30613418      -2.15558880
H        2.71928509      -1.82963392      -1.23651781
H        4.14972773      -0.76336691      -1.26907774
H        2.61227282       1.95263184       0.87296609
H        2.71393247       1.91891016      -0.90521217
H        4.80287960       1.26231225       0.88234238
