15
Properties=species:S:1:pos:R:3 -1577.8123030912732=T 12.779913=T 13.42569=T -9.0546=T -7.0295=T -8.726=T 0.47=T -1.1443=T 0.426=T 8.31385=T 0.14498=T 4.0830697562=T 5.9850397934=T 0.391598497=T pbc="F F F"
C        0.85101188      -0.23048351      -0.10737222
C        2.35514326      -0.01377116       0.06315051
O        3.11110378      -0.82273130      -0.86540052
C        2.73386616       1.43472925      -0.06503550
C        3.37191845       2.13715988       0.89352085
C        3.73739433       3.50179052       0.78651178
C        4.07064506       4.67181635       0.73271022
H        0.28535997       0.31111655       0.66410048
H        0.61587682      -1.30104431      -0.03465738
H        0.51221022       0.13523168      -1.09009562
H        2.66957263      -0.38098243       1.05330987
H        2.82537895      -0.58402872      -1.76653220
H        2.47031026       1.93023265      -1.00685969
H        3.63619588       1.63766860       1.83297913
H        4.35960235       5.70111594       0.67574030
