16
Properties=species:S:1:pos:R:3 -1676.951786875392=T 11.292576=T 12.96439=T -10.6365=T -8.4526=T -11.551=T 0.8147=T -0.1658=T 1.456=T 11.25776=T -1.08649=T 5.3803972672=T 11.2653555614=T 0.295728624=T pbc="F F F"
N        0.90647169       0.04950882      -0.12750182
C        2.06944774      -0.00245889      -0.20504933
C        3.52562514      -0.03898854      -0.28784963
C        4.19230449       1.22943545       0.28827167
C        5.70019348       1.15906950       0.19834334
C        6.55312008       1.93335559       1.17324286
C        6.48967548       0.42518255       1.25962565
H        3.80758157      -0.17131446      -1.34481522
H        3.88411707      -0.93136565       0.24931465
H        3.88545779       1.35006834       1.33924822
H        3.81581140       2.11162142      -0.25324404
H        6.09281249       1.08742076      -0.82064017
H        6.04159984       2.50724513       1.94760084
H        7.47098522       2.39079326       0.80377935
H        7.36564145      -0.14753046       0.95438542
H        5.93423506      -0.00807284       2.09380819
