10
Properties=species:S:1:pos:R:3 -1172.0136681259057=T 10.840966=T 10.64874=T -9.3322=T -7.4372=T -9.292=T -0.772=T -2.5033=T -1.222=T 8.75063=T 1.56007=T 4.2943914946=T 0.395929714=T pbc="F F F"
N        0.99580072       0.06179547       0.00000000
C        2.35684359      -0.02413796       0.00000000
C        3.07589834      -1.19550386       0.00000000
C        2.40921827      -2.43631025       0.00000000
N        1.79730992      -3.43788861       0.00000000
C        3.06421072       1.22408536       0.00000000
N        3.62160225       2.25055193       0.00000000
H        0.53036783       0.95935044       0.00000000
H        0.43796577      -0.78643779       0.00000000
H        4.16230259      -1.16875474       0.00000000
