17
Properties=species:S:1:pos:R:3 -1684.4695210811694=T 12.359794=T 12.87346=T -8.7017=T -6.7517=T -9.617=T 1.1166=T -0.4445=T 0.963=T 8.88619=T -0.44577=T 4.988080766=T 6.649059215=T 0.399470815=T pbc="F F F"
C        0.93797186       1.81145904       1.53494131
C        1.71666207       1.77774143       0.44622620
C        2.75505815       0.73025721       0.16281451
C        4.17435178       1.31135766       0.07182240
N        4.55131455       1.93818336       1.32706231
C        5.80464055       2.47042174       1.54371682
N        6.87156057       2.38076517       0.82834420
H        0.20292034       2.60321463       1.68665877
H        1.00078200       1.03648124       2.30377913
H        1.61921545       2.57294625      -0.30318833
H        2.53431281       0.24148049      -0.80068697
H        2.72683799      -0.04894199       0.94067059
H        4.23389418       2.02948008      -0.77030167
H        4.88275458       0.49600131      -0.14779838
H        3.78571567       2.33501450       1.86910219
H        5.86392223       3.01834561       2.49568947
H        6.70019524       1.85759229      -0.04202253
