16
Properties=species:S:1:pos:R:3 -1638.2920669820344=T 11.683902=T 12.36903=T -9.1909=T -7.3324=T -10.282=T 0.547=T -1.148=T -0.284=T 9.38367=T 0.81694=T 4.105114467=T 5.8136291484=T 0.418935443=T pbc="F F F"
C        1.59095958      -0.64306057      -1.00695034
C        2.92354387      -0.50673193      -0.26746806
N        3.28015947       0.87629847       0.02066316
C        4.15909476       1.59169192      -0.76056826
O        4.75656381       1.09669379      -1.71984982
C        4.33187497       3.01475528      -0.33044708
C        5.14828358       3.83963015      -0.99588784
H        1.37069782      -1.70213251      -1.20442527
H        1.62995240      -0.11385192      -1.96871603
H        0.75915694      -0.22978802      -0.41719998
H        3.74227886      -0.90832271      -0.87980396
H        2.90117723      -1.06760538       0.68002217
H        2.77432989       1.36827318       0.75147241
H        3.77153727       3.36555535       0.54266564
H        5.69759039       3.46727683      -1.86332895
H        5.28390917       4.87872806      -0.69616778
