18
Properties=species:S:1:pos:R:3 -1782.2224568463505=T 11.768308=T 12.96837=T -8.7742=T -6.779=T -10.179=T 0.98=T 0.0958=T 3.247=T 9.43375=T -3.35101=T 8.3026480984=T 10.9022873576=T 0.481220864=T pbc="F F F"
C        0.73731675      -0.05318581      -0.55892540
C        2.17701022      -0.00751132      -0.07976701
C        3.21918468      -0.74649480      -0.88900738
C        3.17717253       0.76805160      -0.90791198
N        2.48198908       0.01800922       1.34604466
C        1.60109359       0.74263832       2.26542962
C        1.65600626      -0.75269981       2.27880814
H        0.71122388      -0.07339539      -1.65667829
H        0.16607656       0.83112635      -0.23778550
H        0.21086643      -0.95336570      -0.20654289
H        2.88833291      -1.28648147      -1.77734516
H        4.02838086      -1.21557643      -0.32959102
H        3.95880954       1.29427913      -0.36029370
H        2.81871324       1.26658748      -1.80959145
H        0.68360046       1.19537237       1.87828436
H        2.11050388       1.32400497       3.03799209
H        2.20608488      -1.28131671       3.06101087
H        0.77445424      -1.27781198       1.89958004
