15
Properties=species:S:1:pos:R:3 -1560.137934334993=T 10.628476=T 11.36264=T -10.1495=T -7.8696=T -10.299=T -0.3956=T -2.1134=T -0.947=T 9.7236=T 1.55012=T 3.4951157456=T 5.3129488832=T 0.391691342=T pbc="F F F"
C        0.93789198       0.20826539       0.05541224
C        2.36797725      -0.24674318       0.12459699
C        2.72736084      -1.53073783       0.31622024
C        3.39993701       0.81835101      -0.03089547
O        3.07413024       1.99731494      -0.18605638
C        4.89340236       0.49510570      -0.00906017
O        5.65480316       1.66736012      -0.16759053
H        0.73297315       0.96130637       0.82974172
H        0.24941853      -0.63577837       0.18260799
H        0.73357019       0.69787189      -0.90767258
H        1.97646748      -2.31432276       0.43225788
H        3.77054358      -1.84443479       0.36585159
H        5.11410400      -0.22604983      -0.81907955
H        5.14208128      -0.00303064       0.94693458
H        4.97889893       2.37971197      -0.25763856
