9
Properties=species:S:1:pos:R:3 -1049.2207399417596=T 12.054104=T 12.15568=T -9.5122=T -7.6103=T -9.486=T -0.3349=T -1.9721=T -0.843=T 8.90007=T 1.40818=T 4.0251930914=T 6.3914906986=T 0.459608263=T pbc="F F F"
C        0.96975801      -0.04509569      -0.00081098
C        2.18202304       0.01154259      -0.00004614
C        3.60381278       0.07435420       0.00084052
N        4.22298813       1.25937208       0.00323167
S        5.86535177       0.95595118       0.00353993
C        5.62123493      -0.76320186       0.00056856
N        4.35222361      -1.08775565      -0.00074956
H       -0.10001344      -0.09484007      -0.00148267
H        6.43767118      -1.48405678      -0.00023133
