15
Properties=species:S:1:pos:R:3 -1440.4466264596501=T 9.28618=T 10.14091=T -9.4284=T -7.1437=T -10.768=T 0.8539=T -0.1427=T 2.938=T 10.14104=T -2.66697=T 8.6683696026=T 14.2832243958=T 0.124407267=T pbc="F F F"
N        2.19619058      -0.42472386      -1.39531596
C        2.39415724       0.03706145      -0.01452202
C        3.20152457       1.32768291       0.00337243
C        2.46493084       2.57966896      -0.51370265
O        2.41342986       3.15845341       0.82722215
C        3.22775050       2.07286166       1.35383958
H        1.57158859      -1.23357859      -1.41221111
H        3.08677977      -0.74108727      -1.78867280
H        2.88864276      -0.70223247       0.65016524
H        1.40015843       0.23789879       0.41936867
H        4.19358972       1.16465670      -0.44607651
H        1.46115074       2.39962862      -0.92997423
H        3.04019611       3.21837663      -1.20468069
H        4.22010869       2.42985726       1.67929747
H        2.73279162       1.55936579       2.19648043
