19
Properties=species:S:1:pos:R:3 -1817.980669123342=T 11.39724=T 12.99291=T -9.9024=T -7.701=T -11.735=T 0.9229=T -0.0089=T 3.039=T 11.01168=T -2.86964=T 9.3661132162=T 11.2747165044=T 0.164555767=T pbc="F F F"
C        0.49731123       0.49680357       0.27848377
C        1.93007875       0.08497248      -0.06333044
C        2.91515819       1.22965660       0.11731674
O        4.22950615       0.77300558      -0.20125069
C        5.21695255       1.79380937      -0.05929785
C        6.53553063       1.22015169      -0.54529502
O        6.48800843       0.85383382      -1.92387456
H       -0.19569636      -0.34536276       0.14731630
H        0.14878714       1.31732631      -0.36687369
H        0.41451598       0.83521944       1.32251825
H        1.98665992      -0.26825763      -1.10540089
H        2.24831823      -0.75538359       0.57369730
H        2.89001225       1.59726502       1.16384852
H        2.64397397       2.08299495      -0.53773937
H        5.30322994       2.10909412       1.00029331
H        4.94069050       2.67760517      -0.66728881
H        6.80934014       0.35401535       0.08672398
H        7.32494758       1.97962501      -0.44573775
H        5.69946477       0.28799551      -2.02028909
