14
Properties=species:S:1:pos:R:3 -1333.3659694409885=T 8.868695=T 9.34626=T -8.4134=T -6.2957=T -9.783=T 1.0437=T 0.1226=T 3.424=T 9.05464=T -3.21362=T 7.9615626124=T 12.2577395054=T 0.126397158=T pbc="F F F"
C        1.01480657      -0.00307760       0.04781773
N        2.46327381       0.02561130       0.07919885
C        3.12067570       1.04154972       0.93714426
C        4.20352823      -0.00622832       1.28681694
C        3.16459986      -1.05218522       0.81864892
H        0.67230961      -0.86782342      -0.54003441
H        0.63490388       0.90627359      -0.44147239
H        0.56011448      -0.06908394       1.06256525
H        2.51061229       1.30579971       1.82725433
H        3.42225802       1.96528624       0.41914294
H        5.07053537       0.04984306       0.61685048
H        4.53826758      -0.05820736       2.32895191
H        3.50316636      -1.89835227       0.20063834
H        2.56819826      -1.44019549       1.67192682
