16
Properties=species:S:1:pos:R:3 -1678.4576793126575=T 11.152907=T 12.57688=T -11.0604=T -8.8001=T -11.624=T 0.7986=T -0.1899=T 1.461=T 11.22425=T -1.08732=T 5.3800501064=T 12.4980243734=T 0.180560564=T pbc="F F F"
N        3.25389112      -0.88601797      -2.43041369
C        3.38712506      -0.49192001      -1.34041403
C        3.57068113       0.02488206       0.01332962
C        4.32445183       1.36013757       0.04153834
C        3.64024092       2.63437433      -0.52283591
C        4.26685463       3.43145210       0.65363390
C        4.46322550       2.08741860       1.40597582
H        4.11243726      -0.73360582       0.60192544
H        2.57704405       0.14227097       0.47675155
H        5.31454846       1.22826134      -0.42200331
H        2.54517849       2.57118293      -0.42644689
H        3.88664504       2.93443729      -1.54942307
H        5.22929980       3.88077324       0.37094487
H        3.64764888       4.19830415       1.13664884
H        5.38994586       1.93624692       1.97597903
H        3.60481196       1.86809231       2.06026948
