15
Properties=species:S:1:pos:R:3 -1630.9076283016093=T 13.417135=T 13.50773=T -8.6391=T -6.756=T -8.466=T 0.1133=T -1.418=T 0.003=T 7.90119=T 0.60368=T 4.0103519672=T 5.164512844=T 0.551829606=T pbc="F F F"
C        1.12384159      -0.17950956       0.59285845
C        2.43251462      -0.02004520      -0.13671563
C        2.97814665      -1.04106987      -0.82730817
C        3.10596562       1.30174066      -0.07131707
C        2.59266965       2.35570746       0.61299257
C        4.34970062       1.46395038      -0.76120414
C        5.40703419       1.59988749      -1.34657926
H        0.36686213       0.52724587       0.21909030
H        1.23995318       0.00797052       1.67152211
H        0.73380655      -1.19651563       0.46384226
H        2.48352770      -2.01195857      -0.87502024
H        3.92489903      -0.92648251      -1.35538670
H        1.65061319       2.28014047       1.15356764
H        3.11640838       3.30982720       0.63790758
H        6.33833689       1.72514129      -1.85982972
