10
Properties=species:S:1:pos:R:3 -1219.9259650389715=T 11.802325=T 13.00134=T -10.557=T -8.3143=T -9.885=T 0.2671=T -1.5776=T 0.029=T 9.50457=T 0.30884=T 3.6055376772=T 8.0466790014=T 0.808980718=T pbc="F F F"
C        0.94581272      -0.06301414       0.00000000
C        2.15507619       0.00202395       0.00000000
C        3.61708658       0.06684668       0.00000000
C        4.13423243       1.43036371       0.00000000
C        4.57563941       2.56600870       0.00000000
C        5.07045325       3.83726495       0.00000000
N        5.49824685       4.93085843       0.00000000
H       -0.12349501      -0.12344009       0.00000000
H        4.01447380      -0.46612110      -0.88203773
H        4.01447380      -0.46612110       0.88203773
