19
Properties=species:S:1:pos:R:3 -1911.8141538415182=T 12.762745=T 14.11515=T -9.9569=T -7.6033=T -9.822=T 0.9033=T -0.0282=T 2.357=T 9.41126=T -1.94687=T 4.346019265=T 10.5072927588=T 0.815700537=T pbc="F F F"
C        2.84078088      -0.87955684      -1.06042397
C        2.45029423      -0.04701172       0.16284065
C        2.98356089       1.39559498       0.16247062
C        2.42113036       2.19327178       1.34318719
C        4.53499252       1.46211936       0.13545000
C        5.18290079       0.82647395       1.27788975
C        5.71344072       0.29085045       2.23037433
H        2.35362765      -1.86474841      -1.03496888
H        3.92510499      -1.05719701      -1.10905941
H        2.53730333      -0.38429550      -1.99638289
H        2.79570903      -0.55109807       1.08163524
H        1.35064193       0.00090422       0.23226169
H        2.64975356       1.87929193      -0.77423759
H        2.75244002       1.76116452       2.29966739
H        1.32147321       2.18749940       1.33085065
H        2.75399117       3.24168475       1.31521846
H        4.84420012       2.52033821       0.09355719
H        4.91193799       0.99794743      -0.79053949
H        6.18665660      -0.18294343       3.06586906
