17
Properties=species:S:1:pos:R:3 -1682.4590803680023=T 13.612136=T 13.46766=T -7.761=T -5.9982=T -8.434=T 1.5497=T 0.0055=T 0.707=T 7.60455=T -0.13422=T 4.7153239646=T 5.0335960266=T 0.498325596=T pbc="F F F"
C        0.91978262       0.17323045       0.18176701
N        2.35652655       0.00207543       0.09401592
C        3.06841009       1.06376546       0.06729995
N        4.45328390       1.05632631      -0.01355660
C        5.17265979      -0.20893614      -0.07267320
C        5.15723140       2.25511388      -0.03558741
C        6.49486714       2.39405404      -0.10776525
H        0.53934338      -0.33379459       1.08275723
H        0.43374064      -0.30722950      -0.68240253
H        0.59439023       1.23236982       0.21734921
H        2.64923824       2.08642322       0.10656747
H        4.43289218      -1.01437680      -0.03820429
H        5.86107790      -0.29422852       0.78181616
H        5.75390789      -0.27179457      -1.00515542
H        4.51116344       3.13512850       0.01267209
H        7.17952295       1.54928583      -0.15766380
H        6.92290165       3.39360717      -0.11731652
