14
Properties=species:S:1:pos:R:3 -1478.391070221704=T 12.773269=T 13.44715=T -8.7687=T -6.9822=T -9.225=T 0.6579=T -0.8825=T -0.229=T 8.51369=T 0.81738=T 4.7205685724=T 11.2951741944=T 0.386617889=T pbc="F F F"
C        0.94546387       0.03915733      -0.00959841
C        2.44838150       0.06051729      -0.00242516
C        3.22550883       1.20081282       0.00675132
S        4.88899644       0.76751662       0.01294437
N        4.60708137      -0.88553048       0.00340142
C        3.29276178      -1.10284931      -0.00398693
C        2.80118734      -2.52443015      -0.01421104
H        0.53577900       1.05703940      -0.00408133
H        0.54640031      -0.48607854       0.87133511
H        0.55453871      -0.47330097      -0.90163860
H        2.89693414       2.23753205       0.01038177
H        1.70572453      -2.57234588      -0.00733530
H        3.17801323      -3.06842052       0.86306602
H        3.16543895      -3.05157966      -0.90711327
