14
Properties=species:S:1:pos:R:3 -1502.284414911583=T 10.147309=T 11.31881=T -9.9899=T -7.9749=T -11.024=T 0.5861=T -1.2297=T -0.24=T 10.09325=T 1.00124=T 3.7346814948=T 11.6573620976=T 0.27621469=T pbc="F F F"
C        1.00507271      -0.62549460       0.03689359
C        2.29169218       0.18750313       0.09005096
C        2.14913844       1.59668322      -0.42820185
O        1.11245889       2.06698017      -0.85735043
C        3.40761927       2.51404719      -0.41399174
C        4.64055232       1.92837544       0.08838038
N        5.62015807       1.43919970       0.49171036
H        1.17678449      -1.63829466       0.42367401
H        0.63110445      -0.70552408      -0.99223276
H        0.21509154      -0.15413167       0.63622355
H        3.10698267      -0.29148906      -0.48176987
H        2.69628087       0.25431393       1.11622416
H        3.14969871       3.40250661       0.18260087
H        3.55901538       2.86722469      -1.44550123
