20
Properties=species:S:1:pos:R:3 -1945.0551181065798=T 13.331788=T 14.40414=T -8.8667=T -6.7463=T -8.688=T 0.8429=T -0.0535=T 1.532=T 8.10673=T -0.83466=T 6.071780399=T 0.399214843=T pbc="F F F"
C        2.16329626      -0.63794910       1.54375726
C        2.76273585      -0.27264165       0.17155187
N        1.83275002      -0.47654166      -0.96398750
C        3.22707036       1.16031605       0.16967771
C        4.47408778       1.64221820       0.01842265
C        5.70153155       0.79915681      -0.20808111
C        4.73688303       3.12597343       0.06378969
H        2.90875992      -0.53378370       2.34714272
H        1.80062484      -1.67769149       1.54628707
H        1.31209141       0.01950688       1.78363989
H        3.62208252      -0.93783716      -0.01213495
H        1.05419138       0.18621123      -0.88135491
H        1.41147979      -1.40775482      -0.88995217
H        2.42049999       1.89045354       0.32781621
H        5.48799354      -0.27428842      -0.26501971
H        6.43637741       0.96039744       0.59822734
H        6.19991823       1.09495918      -1.14593088
H        3.81525260       3.70056336       0.22707823
H        5.19680733       3.47104642      -0.87746836
H        5.44805616       3.37750547       0.86853895
