13
Properties=species:S:1:pos:R:3 -1427.7288587394967=T 9.105362=T 9.98115=T -9.5274=T -7.458=T -10.736=T 0.9681=T -0.9255=T 0.141=T 9.799=T 0.5947=T 3.7337887956=T 10.8271890374=T 0.28358174=T pbc="F F F"
O        1.54636186       0.03128667       1.39188826
C        2.37302024       0.01357617       0.50350083
C        2.96152296      -1.25632186      -0.13840264
C        4.04477674      -0.75964405      -1.06253607
O        5.07367594      -0.01015346      -0.37648170
C        4.04968592       0.72245770      -1.08752695
C        2.96988010       1.25719400      -0.18073238
H        2.16134617      -1.78513535      -0.68246468
H        3.33148436      -1.93552297       0.64269760
H        4.38750518      -1.35819018      -1.91061603
H        4.39612239       1.28981800      -1.95533362
H        3.34453994       1.95975632       0.57712877
H        2.17316820       1.77277902      -0.74229140
