14
Properties=species:S:1:pos:R:3 -1374.1290276645077=T 8.683357=T 9.83335=T -9.9793=T -7.7375=T -11.921=T 1.0078=T -0.0372=T 2.855=T 11.06939=T -2.59408=T 9.2550217602=T 11.682146899=T 0.170648986=T pbc="F F F"
O        2.79450684       0.19508330      -1.72106333
C        2.20393154      -0.04424660      -0.43337622
C        2.94235878       0.81085482       0.58993658
C        4.37777840       0.38597894       0.77959152
C        5.05135566       0.47918373       2.08443079
O        4.59256702      -0.79526265       1.59237302
H        2.41594338      -0.44199852      -2.34902435
H        2.28713343      -1.10925493      -0.15114255
H        1.13242377       0.22841086      -0.43792873
H        2.41497371       0.74823616       1.55454159
H        2.91487741       1.86282085       0.25889617
H        5.00110139       0.41490055      -0.12155797
H        4.49670118       0.87268627       2.94429739
H        6.13928748       0.59848723       2.12918608
