18
Properties=species:S:1:pos:R:3 -1745.432840106816=T 11.897912=T 12.77912=T -8.7788=T -6.7316=T -9.471=T 0.903=T -0.0595=T 1.206=T 9.00309=T -0.72261=T 6.4098406266=T 0.365316415=T pbc="F F F"
C        0.13660876      -0.99665697       0.67318207
C        1.56676367      -1.11417056       0.12345003
N        1.75275987      -2.13541469      -0.92029210
C        2.09329171       0.21975391      -0.39745448
O        1.26246866       0.64172283      -1.49524200
C        1.60222428       1.81667680      -2.09525349
C        2.61681845       2.64225452      -1.79432759
H        0.07416869      -0.25303338       1.48330973
H       -0.19811995      -1.96267661       1.07825373
H       -0.56152349      -0.69522035      -0.12075228
H        2.24050364      -1.38333520       0.95715584
H        1.18409263      -1.88351372      -1.73442392
H        1.39451785      -3.03387790      -0.58814744
H        3.13046905       0.10025771      -0.75312559
H        2.06490954       0.98817441       0.39528924
H        0.90368241       2.03059192      -2.90779073
H        3.33064015       2.45568969      -0.99454575
H        2.73990408       3.54886761      -2.38301528
