20
Properties=species:S:1:pos:R:3 -1936.3178817817577=T 13.090183=T 14.29608=T -8.6958=T -6.5604=T -9.212=T 0.9958=T -0.0006=T 1.454=T 8.5697=T -0.79931=T 6.4511031674=T 0.404836926=T pbc="F F F"
C        0.31945094      -0.49934348       0.32849094
C        1.78450007      -0.07239700       0.34996877
C        2.07976639       1.35038273      -0.06286647
C        1.13983289       2.25280601      -0.38494388
C        3.54560251       1.72613868      -0.09712902
N        4.28428830       0.93462499      -1.08966430
C        5.70788083       1.26065813      -1.11649634
H        0.22104893      -1.54950224       0.63718204
H       -0.11206057      -0.40649863      -0.67934835
H       -0.29205019       0.10679912       1.01344257
H        2.38805429      -0.73540104      -0.29253100
H        2.19957060      -0.21847578       1.36494727
H        0.07511584       2.01676810      -0.36625011
H        1.41548973       3.26976109      -0.67209190
H        4.00010638       1.50987525       0.88796410
H        3.64415752       2.82150332      -0.25852604
H        3.87705649       1.11671407      -2.01099305
H        6.17016052       0.95309481      -0.16544288
H        5.92716117       2.34032551      -1.26080435
H        6.19959736       0.69764634      -1.92198800
