9
Properties=species:S:1:pos:R:3 -1047.5469527190123=T 12.124237=T 12.0357=T -9.4029=T -7.5539=T -9.676=T -0.5884=T -2.2417=T -1.351=T 9.19072=T 1.7782=T 3.8845309744=T 9.324677095=T 0.269561333=T pbc="F F F"
C        0.94931207      -0.02520699       0.00002486
C        2.16109696       0.06402213      -0.00161068
C        3.57924802       0.10008087       0.00008725
N        4.25974778       1.25839393       0.00196061
S        5.86497564       0.85632377       0.00246288
N        5.72384083      -0.80580944       0.00056959
C        4.42478426      -1.06313886      -0.00070695
H       -0.12010447      -0.08510020      -0.00072050
H        4.06731891      -2.09279522      -0.00229706
