17
Properties=species:S:1:pos:R:3 -1671.5959633978846=T 13.511572=T 13.09835=T -8.0822=T -6.1802=T -8.579=T 0.5757=T -0.9574=T -0.155=T 8.07929=T 0.65765=T 4.6610180966=T 4.7485026182=T 0.521332353=T pbc="F F F"
C        2.38055816      -0.54838893       1.24438707
C        2.46429819       0.18758883      -0.10290937
C        2.94019331       1.61693729       0.03112228
C        2.08495165       2.66368860      -0.01172458
C        4.36236952       1.86731178       0.22775191
N        5.22934645       0.90659791       0.24751375
N        6.55045013       1.24278560       0.34394031
H        2.01786523      -1.57652751       1.10067488
H        1.68974103      -0.03550507       1.92950776
H        3.36697410      -0.59972537       1.72449733
H        1.47484336       0.19037290      -0.58493237
H        3.15461561      -0.35587036      -0.76618822
H        1.01548840       2.51550510      -0.16746434
H        2.43463285       3.69160258       0.10562768
H        4.67729056       2.92151023       0.34784464
H        7.09036893       0.48320777       0.75202950
H        6.75338253       2.15152867       0.77977176
