12
Properties=species:S:1:pos:R:3 -1175.0407529943998=T 7.973585=T 8.19979=T -9.3339=T -7.0215=T -9.171=T 0.9536=T 0.0287=T 1.456=T 8.60509=T -0.86896=T 6.428798086=T 0.411690217=T pbc="F F F"
C        1.01190289      -0.00886876      -0.17003894
C        2.50403272       0.03885037       0.02515938
C        3.20706458      -1.29232387       0.00641978
C        3.16481714       1.19272892       0.20545074
H        0.56299764       0.99236804      -0.14617258
H        0.53409945      -0.62242526       0.61143821
H        0.75764627      -0.48022259      -1.13372185
H        2.81036693      -1.95544695       0.79288703
H        4.28950213      -1.18697964       0.15764545
H        3.03882715      -1.81171915      -0.95145006
H        2.64346764       2.15198801       0.21815304
H        4.24756544       1.21205087       0.34575979
