11
Properties=species:S:1:pos:R:3 -1259.5074788350853=T 10.59386=T 9.8833=T -9.2453=T -7.4125=T -9.634=T -0.9163=T -2.641=T -1.495=T 9.09115=T 2.03618=T 3.899111728=T 4.3776604922=T 0.43098835=T pbc="F F F"
C        1.02408726      -0.02694702      -0.15960924
C        2.35528757      -0.03673926       0.06295441
N        3.22852891      -1.09752852       0.22980550
C        4.53639155      -0.62350216       0.43873680
O        5.52496268      -1.30429277       0.61716022
N        4.48246247       0.82325120       0.40109987
C        3.24357923       1.13045888       0.18819264
H        0.43224234      -0.93758962      -0.24038878
H        0.51038061       0.92692939      -0.26424567
H        2.99780064      -2.08499955       0.21068512
H        2.89541674       2.16297943       0.10966912
