14
Properties=species:S:1:pos:R:3 -1489.8813603395436=T 9.85533=T 10.62308=T -8.5481=T -6.4865=T -10.151=T 1.0497=T -0.6809=T 0.284=T 9.49987=T 0.44152=T 3.7812258392=T 11.5099551422=T 0.16161645=T pbc="F F F"
O        1.58491870       0.17846463       1.03419670
C        2.53854917       0.00177618       0.29337021
C        2.92004940      -1.34599505      -0.36124698
N        4.31648549      -1.24340446      -0.83049760
C        4.65703682       0.17898759      -0.81936361
C        3.79905420       1.07197612      -1.63675796
C        3.56365800       0.99858838      -0.11759296
H        2.22473538      -1.54134784      -1.19564853
H        2.78879863      -2.16201877       0.36043744
H        4.91929636      -1.71195440      -0.15142783
H        5.71409705       0.41089574      -0.69207103
H        4.23186162       2.00828501      -1.98745268
H        3.05246641       0.63427184      -2.30199489
H        3.72325278       1.88328504       0.49647972
