18
Properties=species:S:1:pos:R:3 -1738.0552057927985=T 11.221777=T 12.3173=T -9.254=T -7.1647=T -10.492=T 0.8771=T -0.0101=T 2.896=T 9.8621=T -2.5804=T 8.3835489634=T 11.589033413=T 0.091315631=T pbc="F F F"
C        1.02474169      -0.29344500       0.01323286
N        2.48406489      -0.36141616      -0.06993151
C        3.02947364      -0.68166638      -1.39670527
C        3.13736009       0.70822841      -0.85968269
C        4.42592324       1.27945245      -0.29807098
C        4.24492285       1.81319823       1.12687785
O        3.99507387       0.76370918       2.05994822
H        0.74069705       0.35408044       0.85522142
H        0.62680865      -1.30087094       0.20168766
H        0.55715984       0.10270598      -0.90931960
H        2.30978026      -0.86322486      -2.20094533
H        3.91059972      -1.32791072      -1.40140294
H        2.44773445       1.43919454      -1.30040471
H        4.77984439       2.08583225      -0.96111481
H        5.20842798       0.50402146      -0.28055519
H        3.42558934       2.56247221       1.14223769
H        5.16111708       2.32839035       1.45683721
H        3.43280097       0.11368856       1.57702011
