15
Properties=species:S:1:pos:R:3 -1419.9112587038346=T 8.719997=T 9.70463=T -10.2089=T -7.818=T -12.123=T 0.9707=T -0.0309=T 2.988=T 11.60343=T -2.7639=T 9.9238270414=T 15.0349267166=T 0.2272049=T pbc="F F F"
C        1.02844893      -0.12266732       0.02830095
C        2.55585820      -0.04220166       0.05726556
C        3.08523175       1.39204747      -0.04642835
C        4.61007409       1.46562489      -0.02982837
O        5.11908535       2.80466178      -0.07419155
H        0.67974293      -1.16271912       0.10171212
H        0.62547172       0.29958537      -0.90497549
H        0.58481734       0.43867312       0.86457047
H        2.97174397      -0.64566107      -0.76796500
H        2.93057077      -0.50011233       0.98881739
H        2.69205236       2.00293384       0.78335530
H        2.71087811       1.85146596      -0.98022186
H        5.02636661       0.85957565      -0.85806193
H        4.99931477       1.04205470       0.90915401
H        4.80778310       3.21063872      -0.90220327
