14
Properties=species:S:1:pos:R:3 -1537.397849441603=T 12.062466=T 12.30894=T -9.2316=T -7.2693=T -8.958=T 0.1198=T -1.4997=T -0.097=T 8.42111=T 0.64546=T 5.2637264412=T 0.751835207=T pbc="F F F"
C        2.96353429      -1.11703791      -0.68069584
C        2.30917653       0.00404603      -0.32912112
C        2.91312621       1.29755666      -0.01679687
C        2.15494237       2.35613643       0.33165532
C        4.42986434       1.43482625      -0.05768410
C        4.99542662       1.35362360      -1.40555587
N        5.46005146       1.29822642      -2.47388084
H        2.41804901      -2.03648145      -0.89198569
H        4.04849332      -1.15936357      -0.78931539
H        1.21706318      -0.02181565      -0.25967625
H        1.06819535       2.27387593       0.38363952
H        2.59337330       3.32576507       0.56975946
H        4.89935347       0.64748047       0.55546739
H        4.72729056       2.39989173       0.37727028
