13
Properties=species:S:1:pos:R:3 -1442.5466933863368=T 11.783131=T 11.53018=T -8.0776=T -6.1383=T -7.845=T 1.1622=T -0.369=T 0.51=T 7.33013=T 0.0963=T 4.4728445444=T 4.7077980144=T 0.428060552=T pbc="F F F"
C        2.68745018      -1.12796077       0.38478676
C        2.17816006       0.09576421       0.16340395
C        2.96039383       1.32110685       0.09982004
C        2.48553369       2.60545594      -0.12490019
N        3.59663629       3.42289734      -0.09517025
C        4.68493788       2.61808084       0.14222706
N        4.33993113       1.35316245       0.26419479
H        2.04468706      -2.00700455       0.42034682
H        3.75917916      -1.26589199       0.53375390
H        1.10048053       0.21642905       0.01589080
H        1.48722512       2.99272310      -0.29706288
H        3.60464828       4.42967902      -0.22461724
H        5.69373679       3.01624853       0.21394643
