17
Properties=species:S:1:pos:R:3 -1688.042817262324=T 12.260793=T 12.93693=T -8.6342=T -6.7253=T -9.603=T 1.3685=T -0.2511=T 0.833=T 8.75549=T -0.35362=T 5.0240739018=T 6.5313593052=T 0.473354566=T pbc="F F F"
C        0.47381304       1.90184893      -0.30463383
N        1.65261863       1.08571641      -0.09248285
C        2.91647761       1.63590039      -0.00996443
N        3.22239584       2.88926776       0.04766953
C        4.03148555       0.59853194       0.07961849
C        3.96167371      -0.45101441      -0.99328972
C        3.77521247      -1.75956403      -0.77645207
H       -0.40209818       1.24774700      -0.38776089
H        0.54200027       2.51491498      -1.22127277
H        0.30783700       2.57676606       0.54953746
H        1.61136212       0.11301981      -0.38688015
H        2.38197075       3.48105235      -0.00400982
H        3.99179866       0.12060682       1.07227237
H        4.97236406       1.16277158       0.01389442
H        4.06687613      -0.08955286      -2.02290319
H        3.67467018      -2.15924029       0.23646333
H        3.73564215      -2.47555245      -1.59884586
