17
Properties=species:S:1:pos:R:3 -1633.6637038307108=T 10.725862=T 11.90285=T -8.646=T -6.4747=T -10.065=T 0.999=T 0.0892=T 3.321=T 9.34417=T -2.98849=T 8.1516827448=T 11.4166432786=T 0.325507543=T pbc="F F F"
C        1.07935028       0.12591930      -0.57756895
N        2.52830172      -0.02843480      -0.48517787
C        3.14841304       0.97495808       0.38036294
C        4.65166350       0.83717549       0.39457977
C        5.48171076       1.53714843      -0.66055627
C        5.51111438       2.01751817       0.77262024
H        0.67330303      -0.60358479      -1.29181223
H        0.74699504       1.14066710      -0.88684209
H        0.62649840      -0.08367348       0.40444435
H        2.94192262       0.04719564      -1.41843928
H        2.74973204       0.82821461       1.40060802
H        2.88249827       2.01946916       0.09012928
H        5.00702435      -0.14694199       0.71058076
H        4.95707262       2.16066654      -1.38783337
H        6.36202287       1.02681740      -1.05245447
H        6.40965651       1.83220834       1.36153495
H        5.00673056       2.95824679       1.00028421
