20
Properties=species:S:1:pos:R:3 -1898.6939363776712=T 11.696089=T 12.76515=T -9.3907=T -7.2731=T -10.677=T 0.7442=T -0.2302=T 2.694=T 9.98534=T -2.36976=T 8.4086933242=T 10.2557623606=T 0.117175004=T pbc="F F F"
C        0.87700108      -0.06656136      -0.07920467
C        2.39948681       0.05533511       0.03191606
N        3.13650024      -0.68629109      -1.01700021
C        2.94913570       1.51735149       0.05050659
C        2.54735371       2.30846208      -1.20653769
C        2.51470192       2.25995898       1.31446587
O        4.38227728       1.41913540       0.10902319
H        0.35978368       0.48262942       0.72086064
H        0.57262785      -1.12113309      -0.00665523
H        0.51463193       0.32009491      -1.04430839
H        2.72463663      -0.38107411       0.99179600
H        2.67959518      -0.56563423      -1.92550020
H        3.12624082      -1.68806878      -0.81794228
H        2.88185185       1.79681030      -2.12147413
H        3.04232670       3.28883080      -1.18168759
H        1.46131605       2.47215926      -1.27104331
H        2.77290766       1.67924905       2.21164575
H        1.43544135       2.46491139       1.31873928
H        3.04467379       3.22108721       1.36920926
H        4.57798978       0.64352724      -0.46549894
