18
Properties=species:S:1:pos:R:3 -1721.7648830274663=T 12.097127=T 12.96227=T -9.3952=T -7.3225=T -10.803=T 1.415=T -0.4782=T 0.343=T 10.35847=T 0.17187=T 5.3166932604=T 6.5851320334=T 0.452959896=T pbc="F F F"
C        0.55519786      -0.81812204       0.08638087
C        2.06829842      -0.63334540      -0.07703643
C        2.62948472      -1.54800935      -1.17310811
C        2.43473978       0.81335816      -0.39391720
O        2.03428049       1.64089233       0.72039100
N        2.31380610       2.98186410       0.41920783
C        1.98800767       3.75725873       1.38647509
H        0.15412770      -0.16297096       0.87094210
H        0.31512502      -1.85829816       0.35103068
H        0.03138935      -0.58170272      -0.85408999
H        2.55875111      -0.89346902       0.87816706
H        2.17942385      -1.31341240      -2.15111356
H        2.40718562      -2.60139401      -0.95088894
H        3.72055099      -1.44624844      -1.26997498
H        1.91766775       1.16052217      -1.30586758
H        3.52183034       0.92029680      -0.54653798
H        2.17357263       4.81989737       1.22991182
H        1.54823060       3.39768286       2.32434832
