11
Properties=species:S:1:pos:R:3 -1151.6302370974354=T 7.526477=T 8.01608=T -9.3364=T -7.2157=T -10.523=T 1.0397=T -0.85=T 0.312=T 9.70421=T 0.42262=T 3.7439804448=T 13.453224916=T 0.189125504=T pbc="F F F"
O        1.11887503      -0.00762386       0.46953048
C        2.28889162      -0.00925346       0.16403103
C        3.32604141       1.09943636      -0.08556586
C        4.32016769      -0.00411748      -0.56066266
C        3.29951868      -1.11849152      -0.17552978
H        3.61336244       1.61666783       0.84213822
H        3.01977970       1.85756572      -0.82027688
H        4.52971007       0.03698948      -1.63665313
H        5.27125601      -0.03756349      -0.01627717
H        2.97586608      -1.80691239      -0.96905133
H        3.57348128      -1.71605720       0.70683706
