15
Properties=species:S:1:pos:R:3 -1576.5250220256244=T 12.729129=T 13.91108=T -8.4307=T -6.4145=T -8.472=T 1.1238=T -0.4135=T 0.611=T 7.95408=T -0.07123=T 3.9606831756=T 10.6155821312=T 0.484045715=T pbc="F F F"
C        1.08722198      -0.12800621      -0.21268650
O        2.51229786      -0.03989043      -0.19833893
C        3.03799587       1.21613191       0.00635783
C        2.32474658       2.35108780       0.19063982
C        4.46494654       1.19191824       0.00320499
C        5.68217121       1.16844574      -0.00019793
C        7.13430204       1.13727029      -0.00450636
H        0.85565692      -1.18490911      -0.38477116
H        0.65899322       0.48345125      -1.02426210
H        0.65904397       0.19449970       0.75093361
H        1.23791655       2.37228050       0.19324966
H        2.85758334       3.28572515       0.34332800
H        7.55175738       2.15479671      -0.02192795
H        7.51499878       0.60139754      -0.88688754
H        7.52291775       0.62887093       0.89083456
