13
Properties=species:S:1:pos:R:3 -1294.2400763731412=T 11.728461=T 13.8775=T -10.1677=T -8.1838=T -10.446=T 1.0054=T -0.7326=T -0.65=T 10.25786=T 1.2141=T 4.1911235552=T 10.2558367522=T 0.525208701=T pbc="F F F"
C        0.98662321      -0.01184196       0.01938624
C        2.43558175      -0.01654637       0.03537954
C        3.65368754      -0.01913378       0.04659094
S        5.37711194       0.02873790      -0.05073931
C        5.84624530      -0.82722265       1.45513892
O        5.78754155      -0.79389830      -1.19378614
O        5.79765952       1.42912160       0.06652350
H        0.60019776       1.01745517       0.02900139
H        0.58648324      -0.53568757       0.89941142
H        0.60610422      -0.51576724      -0.88068723
H        5.45751648      -0.26599861       2.31135424
H        6.94360117      -0.83327394       1.45802500
H        5.45105634      -1.84766425       1.41418148
