14
Properties=species:S:1:pos:R:3 -1505.2485985797862=T 10.475371=T 10.96709=T -9.0239=T -6.9805=T -9.306=T 1.4577=T -0.2355=T 0.465=T 9.75994=T 0.16047=T 4.36802678=T 6.0096510144=T 0.247503492=T pbc="F F F"
O        2.81516877      -0.99254833      -0.09261955
C        2.36568387       0.10601059       0.22781250
N        2.98097201       1.29372571      -0.01379424
C        4.27893702       1.37880002      -0.70059866
C        4.52387647       2.85996274      -0.72345134
C        3.52732669       3.53716173      -0.14187050
C        2.45289719       2.61519081       0.36455786
H        1.39205477       0.23505801       0.75708072
H        4.22124882       0.93127429      -1.70837330
H        5.05374360       0.81766619      -0.14920841
H        5.41683154       3.29680579      -1.16832668
H        3.46430183       4.61850956      -0.02923074
H        2.31360229       2.70162814       1.45750385
H        1.47590512       2.81611475      -0.11136149
