16
Properties=species:S:1:pos:R:3 -1585.876098853054=T 12.917267=T 12.71745=T -8.5677=T -6.6665=T -9.28=T 0.3662=T -1.2138=T -0.388=T 8.67075=T 0.9173=T 5.126573128=T 5.147092811=T 0.627189234=T pbc="F F F"
C        3.02883512      -1.21975576       0.02634632
O        3.92795376      -0.35251680       0.72928042
N        4.05100471       0.84686825       0.01234923
C        4.86048251       1.65834962       0.61022067
C        5.14060893       2.97178396       0.04496339
C        4.46660359       3.35863537      -1.24354669
C        5.99298556       3.79269320       0.69711361
H        2.96784222      -2.12891327       0.63673555
H        3.41957273      -1.46309585      -0.97315401
H        2.03317099      -0.76069880      -0.06613009
H        5.34843405       1.36929501       1.55150081
H        4.72081269       2.64872084      -2.04396019
H        4.76455643       4.36802855      -1.55297856
H        3.37276395       3.32509574      -1.13560462
H        6.47055444       3.49055157       1.63085977
H        6.23111832       4.78419837       0.31041440
