17
Properties=species:S:1:pos:R:3 -1662.6795015674568=T 10.553503=T 11.89374=T -9.5299=T -7.2591=T -11.428=T 0.9255=T -0.0004=T 2.873=T 10.8446=T -2.60141=T 9.303847447=T 10.7856537274=T 0.091765173=T pbc="F F F"
C        1.44770026       1.68046298       1.87942805
O        2.77950322       1.27035044       1.60259824
C        3.25432041       1.80349551       0.37118388
C        4.68642305       1.35403258       0.16372623
C        5.40988522       2.04148400      -1.01345035
O        6.27520140       2.78816946      -0.11199015
C        5.74233303       2.06266392       1.03754778
H        1.16487315       1.23416566       2.84092678
H        0.74527283       1.33205274       1.09844882
H        1.36972207       2.78165148       1.95462249
H        3.20260886       2.91295680       0.38756151
H        2.61801759       1.45436498      -0.46949063
H        4.73922318       0.25683486       0.17239184
H        4.79446146       2.71101798      -1.63901524
H        5.98723574       1.36420647      -1.66557425
H        6.50219061       1.39884775       1.48221461
H        5.35006793       2.74288240       1.81038039
