12
Properties=species:S:1:pos:R:3 -1264.910803236264=T 10.060917=T 9.78594=T -9.0535=T -7.0725=T -9.523=T -0.0317=T -1.7397=T -0.716=T 8.98101=T 1.19979=T 4.7596117638=T 5.2388920454=T 0.369362455=T pbc="F F F"
C        0.93544347       0.03523922       0.01450016
C        2.28123162       0.07975355       0.05771847
O        2.94009369       1.23630769       0.41269411
C        4.30139917       1.17590019      -0.01714229
O        4.99058819       0.05949693       0.51555857
N        4.39718736      -1.17023335       0.13402981
C        3.13055083      -1.08936963      -0.13378176
H        0.33807188       0.92095342       0.22230844
H        0.43090211      -0.90564199      -0.19252433
H        4.80431073       2.06844083       0.36909535
H        4.33146161       1.12126478      -1.12107225
H        2.67130934      -2.03127162      -0.44220428
