14
Properties=species:S:1:pos:R:3 -1458.9119771249443=T 9.926631=T 10.76027=T -9.0156=T -7.0136=T -10.105=T 1.2694=T -0.3821=T 0.438=T 9.67455=T 0.15173=T 5.4517760074=T 11.1679521598=T 0.223156144=T pbc="F F F"
C        1.38969793       0.06303274       0.48331458
C        2.73986229      -0.06040031      -0.16002104
C        3.48174172       1.07140013      -0.80192728
C        4.09067780       0.36008577       0.41124731
C        4.91860563      -0.80780597       0.06227819
N        4.30711014      -1.72859822      -0.61003807
O        2.95374558      -1.35326162      -0.75868843
H        1.27745154       1.05239638       0.94608478
H        1.25242399      -0.70749957       1.25418779
H        0.59652827      -0.05117380      -0.26938675
H        3.09058868       2.07232399      -0.61928842
H        3.94818666       0.91210405      -1.77484516
H        4.22673721       0.89542784       1.35167991
H        5.96765256      -0.96091139       0.31472259
