15
Properties=species:S:1:pos:R:3 -1548.0128033468557=T 13.162834=T 12.74592=T -8.305=T -6.4668=T -8.787=T 0.2378=T -1.3908=T -0.215=T 7.93826=T 0.72869=T 4.6668454386=T 5.7211107952=T 0.511007919=T pbc="F F F"
C        1.13736648      -0.48610179       0.07011407
C        2.47151540      -0.32082171       0.06240637
N        3.12526160       0.89949109      -0.01618697
C        4.50514954       1.10282143      -0.04363009
N        5.43565967       0.20307072      -0.02819540
C        4.95313737       2.51200452      -0.09448187
C        4.19765826       3.61940089      -0.09534407
H        0.71599789      -1.48567400       0.14048757
H        0.44424223       0.35453866       0.00940215
H        3.13361868      -1.18558746       0.12507981
H        2.53830568       1.72797604      -0.06088415
H        5.05676524      -0.75144897       0.00244090
H        6.04117186       2.59017113      -0.13286437
H        3.10564663       3.61469963      -0.05377533
H        4.66040346       4.60532981      -0.13664861
