13
Properties=species:S:1:pos:R:3 -1380.2080715920506=T 11.194477=T 12.49986=T -10.0663=T -7.9939=T -10.408=T -0.1554=T -2.0586=T -0.69=T 9.79412=T 1.28762=T 3.5619070038=T 10.5149922894=T 0.766746306=T pbc="F F F"
C        0.97414098      -0.06962446       0.06268129
O        2.39898906      -0.05334105       0.06007904
C        2.89291813       1.28033275       0.00394778
C        4.34326958       1.29285680       0.00290204
C        5.56051405       1.37008552      -0.00122126
C        6.99777011       1.37729009      -0.00190843
O        7.68378777       2.39095281      -0.04143678
H        0.67266926      -1.12253443       0.10776669
H        0.56148530       0.38742067      -0.85583848
H        0.56396229       0.46363512       0.94030238
H        2.53010325       1.87332975       0.87019636
H        2.52963078       1.79878103      -0.90869899
H        7.45664943       0.36040541       0.03761836
