14
Properties=species:S:1:pos:R:3 -1416.0367156208501=T 9.54628=T 10.12442=T -9.1327=T -7.2149=T -10.603=T 1.286=T -0.2004=T 0.089=T 9.90999=T 0.49881=T 4.2397136686=T 5.9897760586=T 0.15557194=T pbc="F F F"
O        1.41391022      -0.02729534       0.29590071
C        2.55851007       0.21358018      -0.06787108
N        3.29860243       1.28366726       0.39382647
C        2.68021857       2.53928621       0.83567354
C        3.27365184       3.60350665      -0.12384798
C        4.10714262       2.76165974      -1.09879496
O        4.48340276       1.58677528      -0.33859062
H        3.16262160      -0.42883310      -0.74493016
H        2.94313070       2.74436820       1.88190550
H        1.59191290       2.41520889       0.75803378
H        2.49307967       4.17472648      -0.64211890
H        3.90989810       4.30626806       0.42883877
H        3.51661955       2.45560021      -1.98069352
H        5.04242896       3.23487128      -1.42204155
