10
Properties=species:S:1:pos:R:3 -1038.3021163017931=T 8.336255=T 8.06673=T -8.9466=T -6.9719=T -9.449=T 1.2818=T -0.5833=T -0.046=T 8.95388=T 0.61861=T 4.2744297486=T 5.3449248726=T 0.418993692=T pbc="F F F"
C        0.90133528      -0.39521415       0.02209483
C        2.15227161       0.07530779      -0.08609191
N        2.50106449       1.42330286      -0.15842234
C        3.78919858       1.89945317      -0.26888170
O        4.08122662       3.08401184      -0.33152913
H        0.72776106      -1.46728706       0.07188374
H        0.03277990       0.26340713       0.06290940
H        3.01273682      -0.59646472      -0.12592304
H        1.76645767       2.13181301      -0.12951438
H        4.53882796       1.07572014      -0.29485546
