18
Properties=species:S:1:pos:R:3 -1818.6431586202827=T 12.239259=T 13.02951=T -8.5847=T -6.4467=T -8.645=T 0.9129=T -0.0376=T 1.552=T 8.08778=T -0.86093=T 6.0050883296=T 0.349502008=T pbc="F F F"
C        0.96675431      -0.03682717       0.08148999
C        2.46491397       0.04372227       0.00351137
C        3.14324666       1.20208921       0.05872041
C        4.64532160       1.27888027       0.02547370
C        5.26547930      -0.09417131       0.28985528
N        4.58652004      -1.08727912      -0.54706489
C        3.19269654      -1.27252597      -0.13788166
H        0.64469053      -0.69086118       0.90910138
H        0.54137421      -0.46451796      -0.84185789
H        0.51949018       0.95367509       0.23922675
H        2.58787425       2.14246901       0.13807492
H        4.98244256       1.66004771      -0.95499669
H        5.00265604       1.99989943       0.77999199
H        6.33520281      -0.09112909       0.03307567
H        5.18189980      -0.32159240       1.37676188
H        5.07699842      -1.98138670      -0.49809681
H        3.08834893      -1.82579385       0.82648498
H        2.68321985      -1.88626824      -0.90147041
