19
Properties=species:S:1:pos:R:3 -1875.130436033501=T 11.741876=T 13.45684=T -9.5416=T -7.5447=T -11.442=T 0.8962=T 0.0093=T 2.65=T 10.73267=T -2.35314=T 9.0127407176=T 10.5901278054=T 0.309286701=T pbc="F F F"
C        2.88045555      -1.00922316      -0.40347577
C        2.33449072       0.18440735       0.38797230
C        3.35899138       1.28527519       0.52240515
O        3.62414654       2.10353261      -0.64451703
C        3.08403762       2.74143616       0.54831286
C        1.68508873       3.30108808       0.40892524
C        4.06385750       3.65283078       1.25863470
H        2.12568842      -1.80269822      -0.49506051
H        3.76496594      -1.44261219       0.08775160
H        3.17583310      -0.70015835      -1.41619639
H        2.04321615      -0.13912068       1.40237655
H        1.42753655       0.56961181      -0.09902721
H        4.28011995       0.96609823       1.03568990
H        1.02771690       2.62991698      -0.15455601
H        1.72097521       4.26403813      -0.12229495
H        1.24024091       3.48159196       1.39924810
H        5.06309907       3.19972570       1.29309019
H        3.73337917       3.85597833       2.28863003
H        4.13983062       4.61650129       0.73250125
