11
Properties=species:S:1:pos:R:3 -1245.6384240828443=T 9.208696=T 9.91756=T -10.2115=T -8.2031=T -11.038=T 0.5913=T -0.5804=T 0.052=T 10.15883=T 0.61262=T 4.3883852812=T 11.7383001584=T 0.271937893=T pbc="F F F"
O        1.19363508       0.07743292       0.62558588
C        2.31883653       0.01261020       0.19538518
N        3.24123193       0.93638417      -0.23061743
C        4.30448636      -0.01601304      -0.58075889
C        3.36116181      -1.15486938      -0.07728973
C        2.97714600      -2.16431359      -1.03852828
N        2.66932663      -2.96761882      -1.82743978
H        3.18652305       1.95179769      -0.29196201
H        4.52989258      -0.06257101      -1.65448310
H        5.22605656       0.09907950       0.00572567
H        3.68917346      -1.61925864       0.86282249
