17
Properties=species:S:1:pos:R:3 -1675.115679058367=T 10.855318=T 11.60414=T -8.5088=T -6.4002=T -9.958=T 0.8533=T -0.1067=T 3.073=T 9.633=T -2.86623=T 8.106018701=T 9.987010307=T 0.103551199=T pbc="F F F"
C       -1.21172099      -0.00142751       0.98456921
C       -0.64036960      -1.02528227      -0.02137577
C        0.86791736      -1.22521174       0.23830853
N        1.63981016      -0.00063358      -0.05210489
C        0.86841137       1.22348448       0.24160940
C       -0.63995661       1.02487760      -0.01861550
N       -0.74642364       0.00132725      -1.14068909
H       -0.82118897      -0.00288482       2.01650107
H       -2.31149100      -0.00123836       1.00265917
H       -1.17157353      -1.97478092      -0.18483987
H        1.01641637      -1.52893323       1.28991386
H        1.26919105      -2.03036364      -0.39485424
H        1.77276279       0.00071344      -1.06563210
H        1.27002107       2.03016477      -0.38938949
H        1.01704447       1.52430638       1.29402667
H       -1.17075400       1.97503921      -0.17953481
H       -1.72586630       0.00194295      -1.44944216
