13
Properties=species:S:1:pos:R:3 -1382.9968406374487=T 10.580753=T 11.21013=T -9.9707=T -7.891=T -9.686=T 0.2208=T -1.5035=T -0.131=T 9.19982=T 0.63864=T 5.0191516576=T 10.7727467848=T 0.351473441=T pbc="F F F"
C        0.85351037      -0.24547752      -0.11395202
C        2.35664520      -0.03285646       0.13012392
C        2.74379891       1.41001399       0.09426257
C        3.33132735       2.07043535       1.11172580
C        3.68341074       3.44772073       1.04733664
N        3.98387553       4.57871928       1.02510323
H        0.61117582      -1.31688927      -0.12266109
H        0.54304014       0.17807418      -1.08021467
H        0.25510869       0.23549568       0.67231212
H        2.92246841      -0.56351448      -0.65640381
H        2.65645903      -0.47837324       1.09135802
H        2.51802822       1.96003862      -0.82574163
H        3.56829160       1.55811315       2.04899092
