13
Properties=species:S:1:pos:R:3 -1287.4010169913972=T 9.669404=T 10.09181=T -8.6125=T -6.6286=T -9.772=T 0.7466=T -0.219=T 0.302=T 9.43001=T 0.28359=T 5.0353566278=T 9.7484364458=T 0.182955448=T pbc="F F F"
C        2.09025982      -0.13828450      -0.12027970
C        0.74467084      -0.83675906       0.09914690
N       -0.38722299      -1.31100405      -0.66003155
C       -1.43781197      -0.45971267      -0.22622256
N       -1.41142960       0.70059438       0.37230458
O       -0.10857463       1.33567452       0.63600200
C        0.78683526       0.62489725      -0.19206478
H        2.63917442      -0.15340624      -1.06322805
H        2.71210961      -0.17284445       0.77476641
H        0.62665111      -1.00314291       1.17669440
H       -0.62625873      -2.30407341      -0.62702729
H       -2.45630127      -0.81952871      -0.39718840
H        0.55545811       0.83388986      -1.24287196
