15
Properties=species:S:1:pos:R:3 -1564.348803945055=T 10.08911=T 11.43929=T -10.0104=T -7.9016=T -11.428=T 1.3647=T 0.0395=T 0.153=T 10.31917=T 0.48427=T 4.4282591788=T 11.8649518574=T 0.21997508=T pbc="F F F"
C        2.72326080       1.29723068      -2.84787294
C        3.44858846       1.64308822      -1.57189960
O        2.98341038       2.25490479      -0.63055416
O        4.72645025       1.14530119      -1.60540456
C        5.51823515       1.40209576      -0.44178554
C        6.94454027       0.96810664      -0.54154536
C        6.59113942       2.44664743      -0.54269822
H        3.29884958       1.63614147      -3.71922306
H        1.73462078       1.76495245      -2.84166255
H        2.61674041       0.20683404      -2.93011732
H        4.96385814       1.29260185       0.48972577
H        7.26019957       0.53531974      -1.49087695
H        7.40964859       0.53340860       0.34310867
H        6.80196329       3.04713066       0.34217693
H        6.67648490       2.97267648      -1.49352111
