15
Properties=species:S:1:pos:R:3 -1548.7793828830136=T 10.401203=T 11.22168=T -8.9972=T -6.7106=T -8.874=T 0.8866=T -0.3753=T 1.284=T 8.38991=T -0.63444=T 5.9200959266=T 0.316693191=T pbc="F F F"
O        2.18827144      -0.41734906       1.41638771
C        2.50111788      -0.05540231       0.05813871
C        3.02398560       1.34238042       0.04193317
C        4.15339605       1.79419363      -0.51697116
C        4.25286483       3.27941406      -0.35495895
O        3.08641910       3.66070189       0.39742528
C        2.27203118       2.49958737       0.64366579
H        1.72988888      -1.27429057       1.39451236
H        1.58837512      -0.10795821      -0.56874555
H        3.25072066      -0.73979929      -0.37795298
H        4.90610922       1.19345156      -1.02806031
H        5.16189714       3.58577546       0.19781121
H        4.26305578       3.81131603      -1.32730240
H        1.27495838       2.63151765       0.17664351
H        2.11888873       2.37499137       1.73008361
