18
Properties=species:S:1:pos:R:3 -1805.1527054338885=T 14.034848=T 14.27364=T -8.451=T -6.4736=T -8.301=T 0.6258=T -0.845=T 0.39=T 7.7572=T 0.17584=T 5.0769043364=T 0.75592516=T pbc="F F F"
C        3.99156566      -1.53562226      -0.26540464
C        2.97204199      -0.50057034       0.13690217
C        1.72657179      -0.85742591       0.52106024
C        3.34750306       0.91303004       0.10823701
C        4.54932338       1.41074161      -0.24650612
C        4.88205683       2.87273136      -0.26834692
N        6.08965737       3.13444647       0.53676584
H        4.88833646      -1.47830339       0.37079022
H        4.32470141      -1.38102446      -1.30350528
H        3.57620169      -2.54789249      -0.18435383
H        1.41859323      -1.90369691       0.55391836
H        0.98628774      -0.10946181       0.81200954
H        2.56008962       1.61771888       0.40354415
H        5.36928889       0.74270532      -0.52915140
H        3.98897013       3.45716431       0.03223830
H        5.11994080       3.16944271      -1.30601132
H        5.87915211       2.97938575       1.52609577
H        6.36516784       4.11479112       0.44618790
