12
Properties=species:S:1:pos:R:3 -1292.1706745219792=T 9.164493=T 9.61489=T -9.7842=T -7.6443=T -10.882=T 0.0711=T -1.8384=T -0.817=T 10.49849=T 1.26574=T 3.622188997=T 8.441772789=T 0.078529482=T pbc="F F F"
O        0.83894154       0.64170144       0.18607527
C        1.99466639       0.25455123       0.20662749
C        3.16973010       1.16438344      -0.05989507
N        2.85105809       2.57591781      -0.35536336
C        3.32692907       3.04094815       0.98632416
C        3.88127628       1.64396475       1.25224062
O        4.59273721       1.12165597       2.06796875
H        2.25842515      -0.80526569       0.43459513
H        3.85952924       0.66881279      -0.76653127
H        1.83534846       2.68063585      -0.45649813
H        4.07228865       3.85050491       0.95813123
H        2.53221982       3.30434935       1.70599517
