17
Properties=species:S:1:pos:R:3 -1687.0343466255517=T 11.244122=T 12.4154=T -9.2098=T -7.1305=T -10.406=T 0.707=T -0.2674=T 1.52=T 9.64667=T -1.09548=T 5.3878240286=T 11.162149615=T 0.151366788=T pbc="F F F"
C        1.01260981      -0.20831941       0.01216537
N        2.46157208      -0.00295091       0.05029133
C        2.92286041       1.40486220      -0.00966132
C        2.48628898       2.17856575      -1.27998919
C        2.47568880       2.16017515       1.25980130
C        4.40134927       1.34360116      -0.00796960
N        5.56685608       1.31555932      -0.03717861
H        0.82690859      -1.29052328       0.00035763
H        0.49098840       0.23427973      -0.85891282
H        0.54880173       0.18600235       0.92704017
H        2.89917484      -0.51799482      -0.71707512
H        2.81978744       1.65732320      -2.18764578
H        2.91381131       3.19024346      -1.28758112
H        1.39223270       2.26986319      -1.30483336
H        2.76826159       1.59905180       2.15583004
H        1.38547642       2.29031712       1.25676437
H        2.93642155       3.15524398       1.29285673
