17
Properties=species:S:1:pos:R:3 -1807.5304759218986=T 13.006825=T 13.05048=T -8.1987=T -6.2382=T -8.152=T 0.8579=T -0.6614=T 0.447=T 7.6121=T 0.11482=T 4.9336633106=T 0.607133832=T pbc="F F F"
C        1.04788337       0.05120292       0.19245660
C        2.55854813      -0.03597423      -0.06338781
C        2.94426360      -1.27291318      -0.92857879
C        3.51266485      -0.68448853      -2.19061285
C        3.58184400       0.66204358      -2.13282858
C        3.07881287       1.16556438      -0.85989869
C        3.06765125       2.45139279      -0.45721272
H        0.79273595       0.95688338       0.76086456
H        0.69440903      -0.82126069       0.76230382
H        0.49705559       0.08636578      -0.75986076
H        3.07712122      -0.07805436       0.90786746
H        2.07111048      -1.91635839      -1.13492870
H        3.68338186      -1.91807757      -0.42304923
H        3.83208533      -1.29370859      -3.03751750
H        3.96664305       1.31165019      -2.92051095
H        2.68368348       2.74483187       0.52138057
H        3.44820593       3.24760064      -1.09905643
