16
Properties=species:S:1:pos:R:3 -1512.7412730836593=T 10.134728=T 10.86736=T -8.5553=T -6.403=T -9.977=T 0.8874=T -0.0589=T 3.048=T 9.5246=T -2.76432=T 8.0286142412=T 13.8594526464=T 0.141026976=T pbc="F F F"
C        0.95275065       0.05793216       0.07984468
C        2.46513544      -0.00334467       0.02380572
N        3.21833845       1.04263366       0.80205116
C        4.17353635      -0.01889155       1.27322247
C        3.22328106      -1.13630159       0.79028025
N        3.82039366      -2.29304925       0.14690657
H        0.50590015      -0.76707956      -0.49607738
H        0.57611107       1.00167447      -0.34250469
H        0.59316422      -0.02039618       1.11882511
H        2.80524922       0.03618780      -1.02944995
H        2.63539004       1.33565875       1.59333635
H        5.10596587       0.01883345       0.68394576
H        4.43560593       0.00711134       2.34060990
H        2.59724543      -1.49447770       1.62581863
H        4.30799908      -2.01208885      -0.70862515
H        3.10889337      -2.97563227      -0.12240942
