15
Properties=species:S:1:pos:R:3 -1534.6609845687894=T 10.722799=T 11.43838=T -8.8104=T -6.7898=T -9.626=T 1.3074=T -0.2373=T 0.88=T 9.11225=T -0.19231=T 5.0298764466=T 11.3712272068=T 0.20199002=T pbc="F F F"
C        1.04867843       0.13913263       0.17242163
C        2.47723784      -0.11140078      -0.18317949
N        3.22042159       0.80478350      -0.70224486
N        4.53626086       0.28354579      -0.99262468
C        5.26743558       0.05874905       0.28193143
C        4.58690712      -1.09331363      -0.37070240
C        3.17595341      -1.44129660       0.04620000
H        0.38512380      -0.55489796      -0.36678371
H        0.76991655       1.16859922      -0.08019179
H        0.87915757      -0.02671865       1.24787090
H        6.35252205       0.15190566       0.20629914
H        4.81549942       0.49150785       1.17793637
H        5.18484326      -1.82394338      -0.91661340
H        3.07018787      -1.77741755       1.09078748
H        2.74559467      -2.23327516      -0.59011662
