20
Properties=species:S:1:pos:R:3 -1888.3433146220955=T 11.930391=T 13.31433=T -9.1597=T -7.0005=T -10.277=T 0.8474=T -0.1027=T 2.971=T 9.53676=T -2.67405=T 8.179666385=T 10.5297218262=T 0.119435211=T pbc="F F F"
C        0.83532027      -0.09019711       0.03607277
C        2.35868350      -0.13001280      -0.08606932
C        2.99794800       1.26198865       0.04797566
O        2.70514340       1.85661263       1.31759512
C        4.52104911       1.25190848      -0.15593796
N        5.17508171       0.65402648       1.01467119
C        6.61381295       0.91584480       1.07662158
H        0.40161436      -1.09912627      -0.00765200
H        0.39039046       0.50225690      -0.77847171
H        0.54044907       0.37302186       0.98749668
H        2.65016983      -0.55911318      -1.06108635
H        2.77063484      -0.79459613       0.69377547
H        2.55199471       1.92155680      -0.71827205
H        3.45837262       1.56976816       1.88171458
H        4.86594046       2.29629452      -0.21942153
H        4.78483662       0.75677069      -1.11344949
H        5.02053087      -0.35696960       1.01007476
H        6.78058000       1.99611778       1.20099406
H        7.17045894       0.58853292       0.17537908
H        7.04239825       0.40802441       1.95155947
