12
Properties=species:S:1:pos:R:3 -1361.9189285148518=T 11.507968=T 10.76969=T -8.7065=T -6.8755=T -8.742=T -0.3447=T -1.9247=T -0.894=T 8.36933=T 1.50891=T 3.9142132228=T 4.2326712638=T 0.601471668=T pbc="F F F"
O        0.94133179      -0.15246227       0.00834218
C        2.28637456      -0.03092625      -0.00179881
C        2.91008116       1.17925824      -0.00318660
C        2.35716041       2.51956104       0.00495779
C        3.44222405       3.35545426      -0.00135432
C        4.61629611       2.49507967      -0.01332081
N        4.32080647       1.21108520      -0.01411093
H        0.70114563      -1.09516353       0.00736626
H        2.88746505      -0.94402596      -0.00912127
H        1.30230987       2.78044306       0.01412636
H        3.43875580       4.44386313       0.00161497
H        5.65546911       2.83001341      -0.02066482
