15
Properties=species:S:1:pos:R:3 -1573.198862055794=T 12.903764=T 13.35682=T -8.0441=T -6.0539=T -8.294=T 1.0769=T -0.4169=T 0.595=T 7.85891=T -0.04764=T 4.065252968=T 5.6325847912=T 0.341558837=T pbc="F F F"
C        0.90237064       0.27464139      -0.56528119
O        2.29848817       0.06583239      -0.31839099
C        3.04062707       1.20640679      -0.26519175
C        4.38150546       1.18200353      -0.06070892
C        5.16098668      -0.09926777       0.11972622
C        5.08755843       2.41233885      -0.00948160
C        5.75010516       3.43436497       0.04755277
H        0.43798422      -0.71754286      -0.56993032
H        0.74257006       0.75816814      -1.54219112
H        0.44841439       0.88727395       0.22998347
H        2.50066079       2.14904489      -0.39340999
H        4.50731032      -0.97278824       0.01710030
H        5.63386432      -0.12689284       1.11267346
H        5.96623968      -0.16807698      -0.62601704
H        6.32093461       4.33850380       0.09385669
