11
Properties=species:S:1:pos:R:3 -1198.1542248975015=T 11.034173=T 11.51423=T -7.7942=T -5.8632=T -8.274=T 0.8523=T -0.1392=T 0.141=T 7.79575=T 0.47669=T 3.3811974088=T 10.8919097294=T 0.3573604=T pbc="F F F"
N        0.96130072      -0.09582104       0.23244802
C        2.32804928       0.05895419       0.07617236
C        3.14718165       1.15888842       0.00540776
Cl       2.59690166       2.80563277      -0.04887225
C        4.49871763       0.68353385      -0.03301037
C        4.41580779      -0.67451140       0.00928504
O        3.08831660      -1.07495566       0.08525041
H        0.46405123       0.77698360       0.06007468
H        0.57208608      -0.85657446      -0.32474717
H        5.39962851       1.28469179      -0.09191017
H        5.14227884      -1.47703205      -0.01010831
