18
Properties=species:S:1:pos:R:3 -1698.4974716265092=T 10.595607=T 11.68133=T -9.6268=T -7.3939=T -10.849=T 0.7197=T -0.3068=T 2.857=T 10.17004=T -2.58992=T 8.5950442822=T 12.8553520254=T 0.075259933=T pbc="F F F"
N        0.87047248      -0.17143816      -0.05541459
C        2.32406421      -0.22162193      -0.33802091
C        2.56431314      -1.55076993      -1.07561864
O        1.70859073      -1.67693292      -2.20646036
C        2.70924065       0.99918543      -1.18544451
C        4.21411067       1.20055325      -1.35324818
O        4.91059927       1.41490922      -0.11530716
H        0.59231079       0.76857792       0.23343288
H        0.64099059      -0.79673495       0.72157000
H        2.94286576      -0.21715423       0.57916257
H        2.40333839      -2.38529720      -0.36219686
H        3.60308327      -1.62505519      -1.43071230
H        0.85802043      -1.29640115      -1.89278254
H        2.28349888       1.90911691      -0.72274851
H        2.24759368       0.90735787      -2.18260417
H        4.39684767       2.03475267      -2.05431536
H        4.68057773       0.30630824      -1.79235031
H        4.61999167       2.27231416       0.24208896
