15
Properties=species:S:1:pos:R:3 -1515.7365627564188=T 10.38339=T 10.9322=T -8.5412=T -6.6379=T -9.566=T 0.8806=T -0.2316=T 1.036=T 8.7386=T -0.39486=T 4.8577342842=T 6.048223059=T 0.199774121=T pbc="F F F"
O        0.96232260       0.06121463       0.07498884
C        2.38286485       0.00054247       0.03126677
C        2.99067861       1.16416371       0.81596953
C        4.36329205       0.62209372       1.24793196
N        4.09577061      -0.80308024       1.39628654
C        3.00381015      -1.24678168       0.68969960
N        2.65398710      -2.48321910       0.62368820
H        0.60751601      -0.67875861      -0.44895510
H        2.73899645       0.02182711      -1.01920174
H        2.35688691       1.34193759       1.69747162
H        3.05814237       2.09276436       0.23647148
H        5.13137777       0.82201790       0.47696571
H        4.70951041       1.06314359       2.19380684
H        4.78284335      -1.46651804       1.74182941
H        1.79477076      -2.58799741       0.07108032
