15
Properties=species:S:1:pos:R:3 -1487.1941229236359=T 8.948622=T 9.61933=T -11.4004=T -8.7081=T -12.307=T 0.9975=T 0.048=T 3.334=T 12.16509=T -3.07748=T 10.508371437=T 11.571303415=T 0.160410843=T pbc="F F F"
C       -0.79084780      -0.99994886      -0.19535847
C       -1.18531508       0.41074253       0.26723960
C       -0.00486674       1.27005142      -0.20969191
C        1.23957376       0.39547358       0.07088815
C        0.73087858      -1.07837980       0.07326403
H       -1.35375476      -1.79711173       0.31134890
H       -0.99028734      -1.09689848      -1.27553588
H       -1.25295723       0.44145359       1.36844536
H       -2.15430036       0.74356701      -0.13266442
H       -0.10297609       1.45321654      -1.29270813
H        0.04563224       2.25206531       0.28246723
H        2.03134724       0.56134387      -0.67348432
H        1.66943755       0.65035727       1.05132815
H        1.24514203      -1.69658945      -0.67631007
H        0.92146399      -1.54479279       1.05152178
