16
Properties=species:S:1:pos:R:3 -1584.875268522702=T 11.986439=T 13.75016=T -8.9958=T -6.8372=T -9.502=T 0.8251=T -0.2318=T 2.165=T 9.08938=T -1.74157=T 4.1940372262=T 10.0685806964=T 0.367557332=T pbc="F F F"
C        0.98960594       0.00245377      -0.29142289
N        2.44793840       0.00717154      -0.20644007
C        2.95855340       1.27809817       0.32411038
C        4.41225672       1.36587114       0.26237595
C        5.62360440       1.46496417       0.20284079
C        7.07426304       1.57200433       0.09144221
O        7.51516599       2.48547694      -0.92653009
H        0.65517620      -0.93580813      -0.75377379
H        0.56198787       0.85051444      -0.86832142
H        0.56364479       0.04298216       0.72355905
H        2.85033954      -0.14121224      -1.13475041
H        2.63422592       1.36236398       1.37731126
H        2.53161897       2.16677146      -0.19580461
H        7.50038983       0.56365343      -0.07167667
H        7.49943968       1.95345005       1.03259403
H        7.01161931       2.27848481      -1.73395369
