19
Properties=species:S:1:pos:R:3 -1811.4920423653282=T 12.000523=T 13.41883=T -9.1735=T -7.0518=T -10.632=T 0.8563=T -0.0865=T 2.935=T 10.00907=T -2.61615=T 8.4857010288=T 11.9125500828=T 0.11228956=T pbc="F F F"
C        3.11873265      -1.14798441      -0.51610654
C        2.46059934       0.05719222       0.17457482
N        1.88209170      -0.23747699       1.50085280
C        3.43977783       1.20761008       0.31251764
N        3.77412889       2.06075035      -0.85271978
C        2.98186181       2.61832468       0.27718674
C        3.63795051       3.70554320       1.08981240
H        3.51686234      -0.88007835      -1.50717548
H        2.39594199      -1.96663737      -0.64979290
H        3.95626217      -1.52926837       0.08932018
H        1.62475014       0.41127683      -0.45850241
H        2.62987245      -0.54397107       2.13220097
H        1.24467324      -1.03519415       1.42330430
H        4.31848593       0.97656439       0.93088708
H        3.13959114       1.82748319      -1.62604231
H        1.90681358       2.74806604       0.10665048
H        4.71260994       3.50604770       1.20145884
H        3.18611077       3.76846291       2.09111188
H        3.52615358       4.68552913       0.60178128
