12
Properties=species:S:1:pos:R:3 -1308.4273224561184=T 9.700268=T 9.95773=T -7.5637=T -5.5493=T -7.896=T 0.8222=T -0.2123=T 0.443=T 7.48265=T 0.1142=T 4.1561471046=T 6.5335166616=T 0.356659153=T pbc="F F F"
N        0.96567257      -0.14858655       0.22805479
C        2.33996230       0.02573009       0.07060628
C        3.13987804       1.13472590      -0.05570784
O        2.64101337       2.41310998      -0.21349686
C        4.49832679       0.67747528      -0.05939273
C        4.43524530      -0.68238249       0.05828208
O        3.12743651      -1.09943280       0.14775154
H        0.50854974       0.75754776       0.32737147
H        0.53335482      -0.65661726      -0.54737561
H        3.30845235       3.04507611       0.10266766
H        5.39982580       1.27609322      -0.15573898
H        5.18167242      -1.46714924       0.07752821
