14
Properties=species:S:1:pos:R:3 -1459.7060965099472=T 10.655509=T 11.00035=T -8.8185=T -6.793=T -9.085=T 0.1633=T -1.5058=T -0.33=T 8.54037=T 0.86229=T 4.4245519974=T 6.6679422828=T 0.376581028=T pbc="F F F"
C        0.92569910      -0.06566492      -0.04661201
C        2.41480427       0.09827927       0.05486553
C        3.09278030       1.23439669      -0.20414891
C        4.57707844       1.18110329      -0.01636123
O        5.10634338      -0.08563195      -0.49533693
N        4.48146854      -1.21874983       0.04033548
C        3.23075547      -1.07504861       0.36378395
H        0.65605089      -0.81209784      -0.80949767
H        0.44016547       0.88337121      -0.30692048
H        0.50522467      -0.41693743       0.90889428
H        2.60165286       2.15368712      -0.53011112
H        5.11320216       1.93754279      -0.60354411
H        4.86199770       1.29033871       1.05064354
H        2.77702674      -1.98579850       0.76494968
