20
Properties=species:S:1:pos:R:3 -1913.764870010005=T 11.792181=T 13.53342=T -10.9754=T -8.7251=T -12.424=T 1.011=T 0.0985=T 3.088=T 12.26643=T -2.86877=T 10.5106527794=T 11.0825877988=T 0.334977821=T pbc="F F F"
C        0.55122838       0.29999664       0.58301799
C        1.89626004      -0.35921782       0.27155913
C        3.01289102       0.65014133      -0.01228901
C        4.36758800       0.00281729      -0.31136825
C        5.48240243       1.01162984      -0.60420357
C        6.83247976       0.35217293      -0.89254561
H       -0.23071095      -0.44801803       0.77850865
H        0.21126120       0.92629833      -0.25638581
H        0.62222386       0.94807159       1.47035478
H        1.78594951      -1.03124500      -0.59740773
H        2.19603390      -1.00338475       1.11658271
H        3.11623648       1.32976861       0.85331221
H        2.71649214       1.28891940      -0.86429419
H        4.26340943      -0.68257001      -1.17229101
H        4.66653521      -0.62997115       0.54421887
H        5.58325627       1.69967659       0.25329474
H        5.18684113       1.63919471      -1.46309265
H        7.17007144      -0.25289649      -0.03676013
H        7.61207713       1.09927013      -1.10043636
H        6.77020363      -0.31664414      -1.76502476
