16
Properties=species:S:1:pos:R:3 -1575.6737028691205=T 9.847452=T 10.99921=T -9.2283=T -7.1163=T -11.311=T 0.9637=T 0.0667=T 3.017=T 10.64464=T -2.81139=T 9.223752491=T 13.312810771=T 0.14884354=T pbc="F F F"
C        0.96118371      -0.10038699       0.25706365
C        2.39589646       0.15411708      -0.15813968
C        3.21468884       1.17206043       0.66450788
C        4.12150147      -0.02416346       1.02566070
C        5.56124658       0.01346075       0.55521489
O        3.29491952      -0.93673654       0.22972191
H        0.57068920      -0.99849126      -0.24235866
H        0.32519235       0.75292958      -0.02557001
H        0.88815443      -0.24941262       1.34432481
H        2.45133132       0.31552868      -1.25033727
H        2.67280963       1.62224321       1.50678533
H        3.70657142       1.96229340       0.08195604
H        4.07890452      -0.31221417       2.09192546
H        5.62113879       0.31282599      -0.50135371
H        6.02539249      -0.97747321       0.66103370
H        6.14124928       0.72951913       1.15786498
