16
Properties=species:S:1:pos:R:3 -1640.629272202591=T 12.378107=T 12.70833=T -8.3236=T -6.3697=T -8.736=T 1.4232=T -0.2621=T 0.148=T 8.26223=T 0.53406=T 4.3050170948=T 4.928381507=T 0.409845411=T pbc="F F F"
C        0.86351379       0.05124184       0.12251466
C        2.32766239      -0.25919153      -0.02837394
C        2.68912515      -1.71902294      -0.04188371
C        3.22076979       0.74403268      -0.14005527
N        4.60688931       0.61256738      -0.28427726
C        5.48789686       1.66141785      -0.39615764
O        6.69912276       1.53590580      -0.52080507
H        0.67045581       1.13240822       0.12572962
H        0.46331505      -0.36816975       1.06087044
H        0.27626153      -0.39649536      -0.69677355
H        2.16635273      -2.24085989      -0.86022916
H        2.37181040      -2.20680771       0.89452659
H        3.76233649      -1.91616854      -0.16406925
H        2.88897837       1.78445370      -0.12277748
H        5.02788632      -0.31568405      -0.31046410
H        4.97196324       2.64832231      -0.36073488
