18
Properties=species:S:1:pos:R:3 -1747.750802886442=T 11.592128=T 12.69808=T -8.5194=T -6.4658=T -9.924=T 1.2353=T -0.8177=T -0.018=T 10.0939=T 0.63428=T 3.6774619558=T 8.1998637044=T 0.136022977=T pbc="F F F"
C        1.16374051      -1.09676732       0.77033146
N        2.20039219      -0.39574549       0.01787436
C        3.12574569      -1.35268304      -0.58326911
C        1.64061779       0.49091438      -1.00562809
C        0.92949758       1.70180917      -0.40885222
C        0.60516493       2.78700966      -1.40278263
O        0.87636728       2.75971632      -2.58987755
H        0.51657289      -0.38241134       1.29767077
H        1.63399857      -1.73844801       1.52861090
H        0.52068642      -1.73820628       0.12529811
H        3.57813954      -1.97139145       0.20501677
H        3.93182389      -0.81401324      -1.10153220
H        2.63592456      -2.03288293      -1.31589384
H        0.94885903      -0.04962784      -1.69109937
H        2.46969804       0.85378518      -1.63107829
H        1.55273291       2.15827073       0.38342387
H       -0.01824967       1.43854754       0.09437298
H        0.07668785       3.67294397      -0.96172593
