15
Properties=species:S:1:pos:R:3 -1497.778610967883=T 10.504481=T 11.46574=T -9.1513=T -7.13=T -10.015=T 0.6828=T -0.266=T 0.866=T 9.27753=T -0.28469=T 4.8265146094=T 8.4771583934=T 0.231196702=T pbc="F F F"
C        1.00199007      -0.10887201      -0.11706526
C        2.49778276       0.02236718      -0.03401402
O        3.25822061      -0.37620935      -1.19622581
C        3.26171026       1.01227378      -0.83192077
C        4.57659728       1.55666551      -0.33377388
N        4.56630465       2.92612737      -0.11174277
N        5.64490726       0.86438098      -0.16423722
H        0.52063265       0.48172344       0.67667034
H        0.70146527      -1.15821227       0.01614038
H        0.63096359       0.23613725      -1.09113831
H        2.96286616      -0.29351074       0.90908673
H        2.69919716       1.66377906      -1.51393135
H        3.68452508       3.34729570       0.16677241
H        5.37650435       3.26201688       0.40534443
H        5.46450283      -0.09874279      -0.47804490
