12
Properties=species:S:1:pos:R:3 -1281.9273744521895=T 12.048962=T 12.20404=T -7.4748=T -5.6373=T -8.069=T 0.7356=T -0.2227=T 0.198=T 7.51071=T 0.33748=T 4.1584532442=T 5.931738212=T 0.370871911=T pbc="F F F"
N        0.94379241      -0.03252071      -0.22527150
C        2.34073372       0.04646541      -0.06784757
C        3.07353023       1.21002589      -0.00118195
S        4.79179627       0.89432907       0.07342423
C        4.50137243      -0.82438051       0.03179816
O        5.59237418      -1.64453033       0.07277891
C        3.16566230      -1.12964024      -0.04899869
H        0.46642742       0.83337957       0.01889402
H        0.52922361      -0.80873098       0.28837487
H        2.72159064       2.23691777       0.00230729
H        5.28171036      -2.56593194       0.01508934
H        2.77716641      -2.14640301      -0.11299711
