15
Properties=species:S:1:pos:R:3 -1601.589608464152=T 11.60508=T 11.66961=T -8.5226=T -6.4448=T -8.285=T 0.3841=T -1.1432=T 0.316=T 7.85098=T 0.25201=T 4.7066573432=T 7.1943248458=T 0.422110751=T pbc="F F F"
C       -0.45743178       1.45257294      -0.47916011
O       -1.32166716       0.58824227       0.23998704
C       -1.33442086      -0.77235729      -0.21910478
C       -0.22771868      -1.61923593       0.34211388
C        1.06117469      -1.23104611       0.43863184
C        1.63859580       0.02925528      -0.01184602
C        1.01035589       1.14639975      -0.44047454
H       -0.61973643       2.44405381      -0.02209828
H       -0.78236973       1.54804494      -1.53863382
H       -1.31049543      -0.79662551      -1.32717326
H       -2.30937721      -1.17471833       0.09380799
H       -0.50689538      -2.61147855       0.70642829
H        1.77215870      -1.94289887       0.86709101
H        2.73216782       0.05342384      -0.02372415
H        1.63493977       1.97564775      -0.79037508
