18
Properties=species:S:1:pos:R:3 -1808.7616613853884=T 11.464847=T 12.51895=T -9.1289=T -6.9014=T -10.376=T 0.9152=T -0.0076=T 3.094=T 9.73733=T -2.84703=T 8.4749266454=T 11.4599887842=T 0.114927084=T pbc="F F F"
N        1.06395522      -0.02681148       0.00258148
C        2.52491820      -0.01649596      -0.02065782
C        3.12869313       1.03666402      -1.00693040
C        2.78196382       0.03409882      -2.14647854
C        3.14080408      -1.01551260      -1.05390714
C        4.64617344      -0.76915393      -0.84809704
C        4.63695580       0.79877290      -0.81232617
H        0.72091275       0.77074425       0.54333186
H        0.73178838      -0.86460832       0.48661234
H        2.99530215      -0.03659831       0.98462397
H        2.77336471       2.07620484      -1.01655252
H        3.40060991       0.05849199      -3.05627432
H        1.71406648       0.03346768      -2.38531617
H        2.79791819      -2.05776895      -1.11106009
H        5.01858308      -1.20804453       0.08981037
H        5.24825970      -1.17127158      -1.67559338
H        5.23393256       1.24511723      -1.62066176
H        5.00481841       1.19888391       0.14454533
