13
Properties=species:S:1:pos:R:3 -1347.638899712239=T 10.202972=T 10.64565=T -8.607=T -6.6572=T -9.164=T 0.9945=T 0.0414=T 0.315=T 8.63297=T 0.22159=T 4.8889663576=T 6.3496082278=T 0.250328718=T pbc="F F F"
C        1.05497821       0.12987150       0.08504974
C        2.53432472      -0.07397358      -0.00209435
N        3.38095505       0.97480280       0.16052826
N        4.58985549       0.42812382       0.05666973
O        5.71725982       1.23303596       0.14618198
C        4.60712411      -0.90237648      -0.17214659
C        3.25886997      -1.26553700      -0.21480736
H        0.78753182       1.14513135      -0.23434388
H        0.68985142      -0.00431270       1.11489339
H        0.52356348      -0.58752495      -0.55385089
H        5.31571706       2.11005474       0.32913254
H        5.53382710      -1.45244325      -0.28594962
H        2.86549174      -2.26356221      -0.37861295
