19
Properties=species:S:1:pos:R:3 -1949.964084238412=T 12.734733=T 13.78703=T -8.2459=T -6.1818=T -8.225=T 0.8946=T 0.0088=T 1.592=T 7.66913=T -0.85644=T 5.5881606074=T 0.27619723=T pbc="F F F"
C        0.97175867       0.08759686       0.01203428
C        2.46521982       0.01803559      -0.04821558
C        3.22947587      -1.09079017      -0.12841581
C        2.75484380      -2.51915836      -0.17495225
C        4.70419174      -0.74494461      -0.09335027
C        4.73039778       0.78316364      -0.32279332
C        3.31291638       1.26872610       0.05745677
H        0.50557029      -0.90508627      -0.04753074
H        0.56707582       0.70318459      -0.80883657
H        0.63530661       0.56289781       0.94940113
H        3.60185797      -3.21590068      -0.23942876
H        2.10920453      -2.70872106      -1.04677513
H        2.17467486      -2.79139022       0.72119126
H        5.13744114      -1.02283959       0.88686898
H        5.28503541      -1.29638769      -0.85142988
H        4.90937487       0.98596278      -1.38967196
H        5.52417621       1.28943783       0.24398735
H        2.95485132       2.08201406      -0.59582694
H        3.27615690       1.66626938       1.09011745
