15
Properties=species:S:1:pos:R:3 -1608.6041525150092=T 11.813907=T 12.06416=T -8.2204=T -6.2285=T -8.614=T 0.4416=T -1.076=T 0.301=T 8.03577=T 0.19705=T 5.0454118924=T 6.731013961=T 0.431880981=T pbc="F F F"
C        1.00348589       0.00694884       0.15748894
C        2.33912188       0.04017766       0.03802031
C        3.21363739       1.27497303      -0.02128518
C        4.44097224       0.75037908      -0.76926064
O        4.51748963      -0.65853385      -0.44091346
C        3.25420292      -1.11310275      -0.10627791
C        3.01033945      -2.42381573       0.07022492
H        0.45476446      -0.93551699       0.16726883
H        0.42199712       0.92457245       0.25057143
H        3.49288373       1.58510774       0.99899885
H        2.73050755       2.12325051      -0.52216533
H        4.32346426       0.85569714      -1.86168791
H        5.38972353       1.20784674      -0.46187881
H        2.02632464      -2.75689792       0.39071776
H        3.79042532      -3.16556596      -0.08741181
