10
Properties=species:S:1:pos:R:3 -1235.144105647481=T 14.559079=T 14.48418=T -9.7056=T -7.7273=T -9.054=T -0.6345=T -2.2575=T -0.483=T 8.51595=T 0.97659=T 2.769971226=T 6.542059297=T 2.111879829=T pbc="F F F"
C        1.07919846      -0.00004333      -0.00000074
C        2.52389717      -0.00003555      -0.00009353
C        3.74949862       0.00001183      -0.00013778
C        5.09645587       0.00001274      -0.00028373
C        6.32709149       0.00003612      -0.00012411
C        7.68246903      -0.00010914      -0.00039079
N        8.86002994      -0.00021293      -0.00050449
H        0.68751907       1.02793059      -0.01839110
H        0.68750231      -0.49804923       0.89945232
H        0.68741805      -0.52991109      -0.88102605
