11
Properties=species:S:1:pos:R:3 -1205.0065847450114=T 10.942383=T 11.65833=T -7.8296=T -5.8852=T -8.411=T 0.7196=T -0.2972=T 0.467=T 7.93254=T 0.18225=T 3.7914174884=T 10.7111009456=T 0.478204108=T pbc="F F F"
O        0.95894478      -0.10855816      -0.00659051
C        2.31465882       0.05818403      -0.00001211
C        3.13494444       1.17221374       0.00465463
C        4.46875492       0.66016641       0.01072027
Cl       5.91274180       1.62896413       0.01836277
C        4.43390456      -0.71682836       0.00962900
N        3.08846519      -1.07064555       0.00294026
H        0.54605775       0.77199048      -0.00794398
H        2.83555040       2.21441065       0.00391652
H        5.22553187      -1.45471227       0.01295095
H        2.71900548      -2.01470511       0.00057220
