13
Properties=species:S:1:pos:R:3 -1375.1003198755088=T 9.964345=T 10.38736=T -8.38=T -6.4572=T -8.925=T 0.6303=T -0.4433=T 0.407=T 8.24643=T 0.13745=T 4.9090520896=T 6.394949908=T 0.330081614=T pbc="F F F"
C        0.97818762       0.00550658      -0.00451263
N        2.42419713      -0.05625781      -0.00437882
N        3.17100799       1.09418625      -0.00986930
C        4.43662248       0.65830393      -0.01020821
C        4.53388322      -0.75110143      -0.00569171
C        3.21266096      -1.17082463      -0.00223457
O        2.72757814      -2.44441606       0.00281130
H        0.70725907       1.06593768       0.00574628
H        0.55439504      -0.47315591       0.89239119
H        0.55433511      -0.45632247      -0.91020005
H        5.24538420       1.38457758      -0.01376780
H        5.41707140      -1.37907309      -0.00473191
H        1.75421763      -2.42623061       0.00238623
