18
Properties=species:S:1:pos:R:3 -1778.6495865049249=T 12.73498=T 14.11733=T -8.8095=T -6.781=T -9.711=T 0.9123=T -0.0651=T 2.348=T 9.41307=T -1.93801=T 4.3979817976=T 10.855904195=T 0.871839405=T pbc="F F F"
C        1.00462837      -1.00861933       0.55829330
C        2.33656844      -0.74903949      -0.14511285
C        3.10380558      -2.05595748      -0.36711920
N        2.06453080      -0.08172470      -1.42982598
C        3.26002805       0.50920334      -2.05069673
C        2.91138480       1.41583785      -3.13881803
C        2.61558517       2.19015438      -4.02507882
H        0.46338065      -0.06894619       0.74781886
H        1.16678642      -1.50253382       1.52624081
H        0.36493843      -1.65486644      -0.06098632
H        2.95718680      -0.09683049       0.51315314
H        2.52743744      -2.72594984      -1.02257291
H        3.27635544      -2.56407757       0.59243759
H        4.08691687      -1.88661790      -0.82853275
H        1.38651425       0.66918824      -1.27570586
H        3.89314570      -0.29903115      -2.45379449
H        3.89155116       1.06389172      -1.31950208
H        2.35760564       2.86453887      -4.81591770
