17
Properties=species:S:1:pos:R:3 -1601.0296390996507=T 11.53536=T 11.80122=T -8.2121=T -6.284=T -8.781=T 1.1632=T -0.2918=T 0.679=T 8.09481=T -0.12872=T 4.5501746126=T 5.2094329718=T 0.241597644=T pbc="F F F"
C        0.93325524      -0.10788695       0.58753839
N        2.01366801      -0.17238117      -0.39179732
C        2.70466347      -1.46666581      -0.49685360
C        2.28206436      -2.24453950      -1.74341359
O        2.53462104      -1.52321648      -2.94780216
N        2.67549421       1.01368351      -0.51988396
C        3.79553682       1.10086507      -1.15628068
H        0.45125151       0.87217314       0.50710057
H        1.29981092      -0.24367447       1.62299682
H        0.19178354      -0.88957429       0.37213402
H        2.47838417      -2.06436770       0.40384163
H        3.79183069      -1.29259036      -0.51017090
H        1.21263543      -2.52025545      -1.66470424
H        2.86240008      -3.17746427      -1.81389939
H        2.05028120      -0.67928592      -2.86951839
H        4.22603520       2.10042964      -1.22494515
H        4.31415411       0.27092102      -1.65241206
