15
Properties=species:S:1:pos:R:3 -1608.7569113831985=T 13.467011=T 12.81=T -9.0213=T -7.096=T -8.931=T -0.6958=T -2.2625=T -1.235=T 8.44432=T 1.85735=T 3.3296192328=T 4.1850110454=T 0.769578451=T pbc="F F F"
C        0.86652707       0.20766768      -0.05164586
C        2.21114288      -0.45766488      -0.00721047
C        2.20838504      -1.93051230       0.05172110
O        1.18220420      -2.60419546       0.06204196
C        3.37498820       0.25892292      -0.01867407
C        4.73663729      -0.22992492       0.01603387
C        5.80024725       0.59966647       0.00833535
H        0.96077144       1.29948053      -0.10091188
H        0.27146228      -0.06199431       0.83348967
H        0.29017941      -0.14294880      -0.92055214
H        3.20338183      -2.43257546       0.08921493
H        3.28522709       1.35184931      -0.05977111
H        4.91384885      -1.30696033       0.04875115
H        5.67134254       1.68421522      -0.02413219
H        6.82115463       0.21938432       0.03435967
