18
Properties=species:S:1:pos:R:3 -1772.374477119165=T 11.476679=T 12.55495=T -8.9399=T -7.072=T -10.084=T 0.7782=T -0.1614=T 0.457=T 9.74104=T 0.15898=T 4.3542271382=T 12.768016287=T 0.245136649=T pbc="F F F"
C        1.17019108      -0.34475358       0.12534333
C        2.20626377      -1.07871346       0.97763724
C        3.61705770      -0.51144805       0.77470114
N        4.64223772      -1.18939259       1.56738854
C        5.16098830      -2.46257078       1.09977354
C        5.09351057      -0.61816199       2.72697951
O        4.70547137       0.44810529       3.19592052
H        0.16351388      -0.75575122       0.28288460
H        1.40019398      -0.42929850      -0.94799647
H        1.13654149       0.72618144       0.37588838
H        2.19514793      -2.15335446       0.73134436
H        1.94924428      -0.99305928       2.04504992
H        3.63934288       0.54618430       1.07495511
H        3.90611415      -0.57485860      -0.28876878
H        4.36869409      -3.22508991       1.03746675
H        5.92597493      -2.82026076       1.80142084
H        5.62227247      -2.35703016       0.10420735
H        5.87944940      -1.24167769       3.21441411
