15
Properties=species:S:1:pos:R:3 -1405.9133746507032=T 10.498527=T 12.07964=T -10.457=T -8.5084=T -11.=T 0.8575=T -0.188=T 0.009=T 10.63056=T 0.33916=T 5.5469352624=T 10.7982135092=T 0.162293902=T pbc="F F F"
C        1.02575630      -0.08706691       0.05604088
C        2.54630541       0.02483566       0.04015968
S        3.03555636       1.75735029      -0.01472173
O        2.64841895       2.35165726      -1.29749252
O        2.66816285       2.42624735       1.23674155
O        4.66766566       1.47385633      -0.01907786
C        5.46247273       2.68790986      -0.06171520
H        0.74332676      -1.14738438       0.08956891
H        0.58595893       0.35754758      -0.84577864
H        0.60068549       0.41006094       0.93725768
H        2.99784792      -0.43571611      -0.84818938
H        3.01263229      -0.38298419       0.94646618
H        6.50213556       2.34518494      -0.05920101
H        5.26650807       3.30713075       0.82440658
H        5.25283672       3.25272063      -0.98044511
