16
Properties=species:S:1:pos:R:3 -1588.3019258516213=T 10.020825=T 11.00636=T -9.6053=T -7.3927=T -10.922=T 1.1498=T -0.8548=T 0.017=T 10.04607=T 0.6036=T 3.6878023882=T 8.2586950614=T 0.121619745=T pbc="F F F"
C        0.98234753      -0.46695907       0.19777500
C        2.37520448      -0.14594017      -0.35441631
C        2.89172607      -1.27295504      -1.25727201
C        2.36736598       1.20599056      -1.10100533
C        3.75290913       1.68627558      -1.44812705
O        4.12843680       2.03045187      -2.55361980
H        0.62900115       0.31833339       0.88214798
H        0.98857602      -1.41877146       0.74889988
H        0.24820459      -0.55865823      -0.61813506
H        3.06645633      -0.04737090       0.50335662
H        2.23496658      -1.40358387      -2.13196807
H        2.92108145      -2.22821359      -0.71331812
H        3.90496754      -1.06822061      -1.63287663
H        1.92775335       1.97401911      -0.43753408
H        1.75877052       1.15901428      -2.01704475
H        4.46126247       1.71369814      -0.57511228
