18
Properties=species:S:1:pos:R:3 -1789.0112002563956=T 11.771164=T 13.37088=T -9.3555=T -7.2234=T -10.931=T 0.9417=T 0.029=T 3.047=T 10.2928=T -2.65088=T 8.806849566=T 11.0290754412=T 0.226168803=T pbc="F F F"
C        1.13597155      -0.11631169       0.10168805
C        2.62442419      -0.08563953      -0.16015035
C        3.18912902      -0.54400939      -1.48455412
C        3.22664733       0.92157717      -1.11937250
C        4.49682062       1.63788545      -0.78014357
C        5.81815648       0.97149084      -0.61629352
N        5.53293426       1.75719820      -1.83698700
H        0.84864933       0.60453129       0.88270663
H        0.80795877      -1.11485017       0.42928953
H        0.57150063       0.13583895      -0.80872356
H        3.25047690      -0.31350822       0.70820667
H        2.48388779      -0.84251975      -2.26207920
H        4.12254611      -1.10750509      -1.48902561
H        2.50239090       1.54898181      -1.64964529
H        4.34599346       2.52251985      -0.14860449
H        5.91799353      -0.10322923      -0.78653664
H        6.50115311       1.37881338       0.13382751
H        5.98827602       2.67310614      -1.76838255
