17
Properties=species:S:1:pos:R:3 -1749.9350577405762=T 11.449324=T 12.33369=T -9.0825=T -6.8417=T -8.919=T 0.9802=T -0.0501=T 1.468=T 8.41211=T -0.83352=T 6.1144191844=T 0.315148526=T pbc="F F F"
O        2.49757777      -0.32272434      -1.58569401
C        2.41412413       0.03966142      -0.19941652
C        3.25770624       1.29109597       0.02405701
C        3.31523489       1.71851433       1.51456631
C        3.32237519       3.26761170       1.50713790
C        2.76350004       3.60315764       0.14538454
C        2.73196416       2.53329341      -0.66154818
H        1.93387896      -1.10120741      -1.72681923
H        2.79208754      -0.77864808       0.44330118
H        1.36703453       0.24992219       0.09303140
H        4.27152201       1.06482515      -0.36004416
H        4.17465331       1.28668664       2.04535502
H        2.40312524       1.36433969       2.02356383
H        4.34574598       3.67185723       1.61339935
H        2.73427057       3.69745621       2.33331276
H        2.46759924       4.61377049      -0.14239707
H        2.41222018       2.52932778      -1.70412011
