14
Properties=species:S:1:pos:R:3 -1405.6481458978135=T 10.242739=T 10.90428=T -9.6415=T -7.511=T -10.751=T 0.8451=T -1.1231=T -0.318=T 10.32123=T 0.9752=T 3.6677166562=T 6.5607687844=T 0.195086549=T pbc="F F F"
C        1.05257469      -0.07380697       0.06514243
C        2.49976339       0.06539293      -0.46204678
C        2.76288108      -1.05183996      -1.46249777
O        3.08082633      -0.90346093      -2.62537985
C        2.76925021       1.42265579      -1.03593218
N        3.54724810       2.21639287      -0.39865455
O        3.66435955       3.46026902      -1.06286429
H        0.88515395       0.62574672       0.89338560
H        0.86457977      -1.09386115       0.43083538
H        0.32332741       0.14516938      -0.72785635
H        3.19198552      -0.10166061       0.38310765
H        2.61412670      -2.07794371      -1.03212991
H        2.29079225       1.71616060      -1.97943399
H        4.28697103       3.93855600      -0.48581540
