15
Properties=species:S:1:pos:R:3 -1601.8975785765529=T 13.658411=T 14.47836=T -8.1469=T -6.3032=T -8.032=T 1.0377=T -0.4022=T 0.353=T 7.44376=T 0.26135=T 4.254517597=T 11.7990904942=T 0.471411699=T pbc="F F F"
C        0.85296702       0.11533546      -0.00947472
C        2.34748011       0.02336917       0.00015024
C        3.27361168       1.04162548       0.00880105
C        4.63730479       0.60793211       0.01509382
C        5.81957023       1.54188839       0.02645514
C        4.72584098      -0.76666687       0.01102481
S        3.16422153      -1.51926259      -0.00016469
H        0.54734002       1.17003094      -0.00196297
H        0.40506278      -0.37027476       0.87045121
H        0.41765304      -0.35395137      -0.90451113
H        2.98341638       2.09373809       0.01029562
H        5.49081077       2.58929993       0.00774961
H        6.46977544       1.38139814      -0.84602223
H        6.43565087       1.40283421       0.92712272
H        5.61879435      -1.38657632       0.01424153
