14
Properties=species:S:1:pos:R:3 -1533.2818521549923=T 11.332908=T 12.25573=T -9.8423=T -7.8312=T -9.714=T 0.1729=T -1.5466=T -0.134=T 9.18453=T 0.6203=T 5.048647927=T 6.3591303526=T 0.254493048=T pbc="F F F"
C        1.86964774      -0.58932346      -1.21148219
C        2.24070723       0.02202054      -0.06965260
C        1.67205008      -0.40908306       1.17742757
N        1.23826811      -0.73452169       2.21356683
C        3.21559965       1.14973956       0.03771773
C        3.57441260       2.00995570      -1.14533525
C        2.71978002       2.58418987      -0.04175837
H        2.30490470      -0.29714744      -2.16691462
H        1.13122238      -1.38977639      -1.20897042
H        4.00418423       0.97636958       0.77420973
H        3.08967236       1.81055079      -2.10094065
H        4.61021983       2.33947251      -1.22625411
H        3.15752441       3.30928871       0.64392652
H        1.66022666       2.72980476      -0.25336016
