14
Properties=species:S:1:pos:R:3 -1487.3728404344379=T 10.53184=T 10.97749=T -8.8174=T -6.6369=T -9.225=T 0.8098=T -1.0632=T -0.097=T 8.87823=T 0.75818=T 3.627706374=T 6.1145059746=T 0.143290947=T pbc="F F F"
O        1.84113181      -0.41542077      -1.17974988
C        2.04890170       0.25287967      -0.18661625
C        3.18111123       1.27887331      -0.04795127
N        3.66383372       1.31983544       1.34198915
C        3.66064285       2.71377640       1.83810990
C        2.90571708       3.45813572       0.77474957
C        2.64687068       2.67435287      -0.27837089
H        1.41444768       0.17939589       0.73402734
H        3.95418495       1.01582381      -0.79626478
H        4.57023244       0.87001457       1.44280470
H        4.67923050       3.13158774       1.96574448
H        3.16361283       2.78463534       2.82277517
H        2.63369321       4.50952293       0.86613670
H        2.12490933       2.95794707      -1.19104394
