11
Properties=species:S:1:pos:R:3 -1181.6044827870599=T 9.27972=T 9.53837=T -9.1665=T -7.2606=T -9.498=T 0.9717=T -0.6579=T -0.103=T 8.90266=T 0.58549=T 4.935696681=T 11.6726867672=T 0.256663242=T pbc="F F F"
C        2.06779530       0.38773089       0.74017211
N        1.86922452       0.22209199      -0.76628954
C        2.83361512       1.25274431      -0.94655086
N        3.50445467       1.98725995      -1.80265423
O        4.16326761       2.91008475      -0.89791953
C        3.82617488       2.62973441       0.40542392
C        2.98466014       1.56738988       0.41940364
H        2.57297900      -0.46335766       1.21719134
H        1.12550059       0.61744326       1.25393072
H        2.06521222      -0.69625257      -1.17047759
H        4.29265595       3.28208079       1.13764002
