18
Properties=species:S:1:pos:R:3 -1732.7887719482248=T 11.374118=T 12.74439=T -8.896=T -6.7141=T -10.238=T 0.9859=T 0.0513=T 3.147=T 9.54817=T -2.85472=T 8.3974725912=T 10.493059166=T 0.106187626=T pbc="F F F"
C        1.41499035       0.37539377      -0.62691590
O        2.83269084       0.43525383      -0.60992963
C        3.30972239       1.45557824       0.26108505
C        4.82642807       1.47171333       0.21207836
C        5.54077514       2.09226342      -1.01563878
C        6.45825880       2.79999295       0.00919432
N        5.43801614       2.53095550       1.06416589
H        1.13143915      -0.42550656      -1.32170107
H        0.97159803       1.32845224      -0.97355592
H        1.00628709       0.14545264       0.37592688
H        2.97173658       1.26748089       1.30236199
H        2.91784266       2.44812377      -0.04026554
H        5.20605620       0.45230771       0.41889948
H        4.88903079       2.79297843      -1.55512638
H        6.00873396       1.40316069      -1.72706965
H        7.40941198       2.25590434       0.15404164
H        6.67852705       3.86734778      -0.14611349
H        5.81696479       2.19957703       1.95431276
