15
Properties=species:S:1:pos:R:3 -1447.6913762882336=T 9.488183=T 10.49977=T -9.4219=T -7.1396=T -10.51=T 0.8861=T -0.0664=T 3.031=T 9.95552=T -2.71391=T 8.4800348686=T 13.808878757=T 0.189135679=T pbc="F F F"
N        1.05848173      -0.09400270      -0.06592267
C        2.50468853      -0.06137141      -0.02561277
C        3.24015254      -0.64795033      -1.20623707
C        3.20108919       0.85651580      -1.00208971
C        4.45518512       1.59042115      -0.60131111
O        5.31169260       1.88421779      -1.71374171
H        0.66892614       0.64307091       0.52708732
H        0.71402033      -0.98457990       0.30152485
H        3.00766615      -0.18114977       0.94450827
H        2.62723801      -1.06043153      -2.00774337
H        4.17577245      -1.17553039      -1.00832484
H        2.53287864       1.39969231      -1.67463994
H        4.99820740       1.00698705       0.16876321
H        4.20968318       2.56930771      -0.16043800
H        5.40973799       1.05737332      -2.21983246
