13
Properties=species:S:1:pos:R:3 -1372.7126861671795=T 10.062851=T 10.54626=T -8.22=T -6.2853=T -8.806=T 0.7534=T -0.2019=T 0.316=T 8.34245=T 0.2064=T 4.6867451916=T 6.203825489=T 0.256064231=T pbc="F F F"
C        1.00139703      -0.01021904      -0.00753537
N        2.45213507       0.03860658       0.00207414
C        3.24869963       1.15570335       0.00514178
C        4.55785113       0.68604278       0.01163689
O        5.74669453       1.37261857       0.01748218
C        4.44889896      -0.72014194       0.01164591
N        3.16091109      -1.10593392       0.00577541
H        0.61236363       1.01373087       0.00078611
H        0.63635176      -0.54468730       0.87952887
H        0.64622029      -0.52647290      -0.90942375
H        2.83628216       2.15957342       0.00284371
H        5.55998324       2.32672863       0.01662458
H        5.24623149      -1.45726909       0.01609954
