12
Properties=species:S:1:pos:R:3 -1368.489755206225=T 11.081977=T 10.40702=T -8.3597=T -6.358=T -8.27=T -0.4444=T -2.0255=T -0.607=T 7.68091=T 1.10311=T 3.3203574786=T 6.1339841752=T 0.58714316=T pbc="F F F"
C        0.88555563       0.00069750       0.00288925
C        2.23583747       0.00065374      -0.00069226
C        3.11683247       1.18130245      -0.00285299
C        4.40276095       0.73738879      -0.00634261
C        4.40268098      -0.73634643      -0.00656344
C        3.11669068      -1.18010185      -0.00320423
H        0.31797435       0.93296647       0.00452970
H        0.31795706      -0.93156186       0.00425194
H        2.76926775       2.21201810      -0.00176915
H        5.29987119       1.35498095      -0.00862301
H        5.29971442      -1.35404657      -0.00902676
H        2.76898704      -2.21077130      -0.00242644
