17
Properties=species:S:1:pos:R:3 -1694.2762202117315=T 11.697915=T 12.69579=T -8.8688=T -6.9=T -9.822=T 0.7869=T -0.1287=T 1.065=T 9.04969=T -0.44227=T 4.895897175=T 11.5683525482=T 0.232503288=T pbc="F F F"
C        0.99665623       0.00852632      -0.04328524
C        2.50214444      -0.11700939      -0.02923483
C        3.24987505      -0.69271991      -1.20177775
C        3.36613536       0.78304060      -0.90987668
C        4.62039413       1.38628316      -0.34666119
N        4.50456708       2.74934815      -0.09827562
N        5.74309791       0.80055878      -0.10518982
H        0.65139710       0.80228355       0.63644151
H        0.51941019      -0.93189811       0.27198696
H        0.62893860       0.24597635      -1.05251876
H        2.94443823      -0.33855331       0.94619823
H        2.68042890      -0.97719329      -2.08786998
H        4.11291258      -1.32899664      -0.99671454
H        2.81012197       1.44645150      -1.57854090
H        3.58116076       3.09103214       0.15266472
H        5.26397997       3.12589652       0.46589624
H        5.71990149      -0.16706640      -0.44492235
