16
Properties=species:S:1:pos:R:3 -1549.553664295896=T 10.005577=T 11.13449=T -9.6017=T -7.3796=T -10.936=T 0.7513=T -0.2769=T 2.714=T 10.30303=T -2.45223=T 8.5215825772=T 10.139947038=T 0.087282995=T pbc="F F F"
N        0.87630957       0.15549999       0.12227580
C        2.32398053      -0.01124809       0.00761069
C        3.16007994       0.92287666       0.90323359
O        3.80020950      -0.20296682       1.57564674
C        2.92396429      -1.14531300       0.86838555
C        3.74238036      -2.21917577       0.18118219
O        4.48653858      -2.99168395       1.12177603
H        0.39882826      -0.60974402      -0.36282060
H        0.58771283       1.01165828      -0.36002402
H        2.70497361      -0.04410569      -1.03171392
H        2.54355340       1.51218613       1.60238219
H        3.89760153       1.56961382       0.40320791
H        2.19377949      -1.58859600       1.56804043
H        4.41082993      -1.74963596      -0.56645949
H        3.07539893      -2.92046250      -0.34600936
H        5.00968926      -2.35405309       1.64294627
