17
Properties=species:S:1:pos:R:3 -1696.3953236261514=T 10.608499=T 11.72898=T -9.8941=T -7.7021=T -11.116=T 0.9613=T -1.0669=T -0.141=T 10.20479=T 0.77441=T 3.712326819=T 11.8846408342=T 0.120743021=T pbc="F F F"
C        1.23603222      -0.68183395       0.74587604
C        2.73541624      -0.91705257       0.56285866
O        2.98678261      -2.14212416      -0.14108677
C        3.42031029       0.28476124      -0.10380194
C        4.89973951       0.06279588      -0.42410185
C        5.18860579      -0.64542519      -1.72236161
O        4.35083489      -1.08437288      -2.49436628
H        1.04327141       0.19701883       1.37998702
H        0.77525620      -1.55931201       1.21824178
H        0.74727622      -0.51957028      -0.22707494
H        3.19291228      -1.06943021       1.55817906
H        3.00092540      -1.93533156      -1.09687084
H        3.31734449       1.15585552       0.56153280
H        2.88389978       0.53417301      -1.03555784
H        5.41170618      -0.51129439       0.37070140
H        5.45215756       1.01901544      -0.47533015
H        6.27722892      -0.73971272      -1.96716455
