17
Properties=species:S:1:pos:R:3 -1718.379408333286=T 12.684804=T 13.7837=T -9.5908=T -7.3823=T -9.637=T 1.4503=T -0.2524=T 1.217=T 9.37538=T -0.97576=T 6.7177226618=T 0.902315442=T pbc="F F F"
C        1.43060884      -0.42236534       0.86512185
C        2.34561750       0.00126902      -0.01174950
C        3.03530849       1.32691350       0.06708812
O        4.44746574       1.12413065      -0.02173215
C        5.15940694       2.36325751      -0.04904275
C        6.62918816       2.08235986      -0.03472140
C        7.50221381       2.60350623      -0.90182758
H        0.92682680      -1.38238949       0.74591338
H        1.14998939       0.18234847       1.73142722
H        2.62282953      -0.62245115      -0.86760788
H        2.77348648       1.84893140       1.00946706
H        2.70241006       1.97290177      -0.77372037
H        4.88470854       2.96546422       0.84367679
H        4.88239915       2.95438360      -0.94515670
H        6.97249976       1.41811926       0.76484135
H        7.17604059       3.25956054      -1.71304069
H        8.57104024       2.39894995      -0.82840676
