15
Properties=species:S:1:pos:R:3 -1540.9049785367044=T 9.606785=T 10.65899=T -9.2993=T -7.2603=T -11.208=T 0.8785=T -0.0813=T 2.747=T 10.4239=T -2.48372=T 8.884278823=T 10.4090214552=T 0.091997401=T pbc="F F F"
O        1.00008720       0.06904021      -0.01210976
C        2.42106260      -0.03003092      -0.01680601
C        3.02216757      -1.16943672       0.87221499
C        3.80721843      -0.26626893       1.84699213
C        4.50598940       0.75133467       0.91834268
C        3.02547695       1.15874602       0.75845973
O        2.81063732       0.77448735       2.16564298
H        0.64281907      -0.72460246      -0.44521464
H        2.80491941      -0.05932506      -1.05306509
H        3.65762385      -1.87483469       0.31821257
H        2.22664410      -1.71664081       1.39532450
H        4.28099094      -0.71278845       2.72983074
H        5.06428247       0.38636074       0.04295410
H        5.07246594       1.50216706       1.48042941
H        2.67957477       2.16781201       0.50680168
