15
Properties=species:S:1:pos:R:3 -1578.9360180800968=T 11.621391=T 11.93071=T -7.2308=T -5.3135=T -7.716=T 0.9122=T 0.016=T 1.109=T 7.15435=T -0.54405=T 4.6523390766=T 5.8453571658=T 0.327132039=T pbc="F F F"
C        0.93304391       0.03025625       0.02802951
C        2.43058741       0.01497230       0.01710433
C        3.28488015       1.10728091      -0.03521953
N        4.57842286       0.64610170      -0.01551070
C        4.58306952      -0.73891851       0.04501184
C        3.25853060      -1.15421656       0.06640417
N        2.76903215      -2.47360319       0.20970175
H        0.54789041       1.05889064       0.03381811
H        0.53002010      -0.48246517       0.91623033
H        0.50485656      -0.47065822      -0.85744399
H        3.06234188       2.16856047      -0.08197297
H        5.40618061       1.22756762      -0.02181401
H        5.50967809      -1.30202337       0.07665218
H        1.92050751      -2.62620787      -0.33627064
H        3.45762823      -3.17514699      -0.05955038
