14
Properties=species:S:1:pos:R:3 -1472.0495867928635=T 11.379441=T 11.79368=T -9.0053=T -6.9566=T -8.761=T 0.6841=T -0.9432=T 0.585=T 8.25396=T -0.05067=T 4.0596240036=T 11.2707241552=T 0.451066572=T pbc="F F F"
C        1.05464756      -0.22902653       0.26363252
C        2.50985423       0.02150970      -0.15213853
C        2.89620565       1.48909911      -0.12709659
C        3.24561242       2.16769972      -1.24016965
C        2.86734709       2.13486463       1.14589361
C        2.82663571       2.63257525       2.25633069
H        0.82921960      -1.30463915       0.25499618
H        0.35816141       0.27302375      -0.42329226
H        0.86324491       0.15112212       1.27692178
H        2.68846908      -0.36549618      -1.16668334
H        3.18209551      -0.52894806       0.52688146
H        3.26742374       1.66823611      -2.21004282
H        3.51569617       3.22278597      -1.20309440
H        2.79815693       3.09436355       3.22198135
