18
Properties=species:S:1:pos:R:3 -1805.062188785633=T 11.411833=T 12.53878=T -8.275=T -6.1162=T -9.751=T 0.9634=T 0.057=T 3.226=T 9.04723=T -2.89581=T 7.8308069768=T 10.880701395=T 0.145555532=T pbc="F F F"
C       -1.75199740       0.85581238       0.53750075
C       -1.17226250      -0.24969402      -0.31218516
C       -0.33256023      -1.35708125       0.30477291
C        1.09538440      -1.31866008      -0.26934598
N        1.69020218       0.04229566      -0.25170798
C        0.86225959       1.07906031       0.39063497
C       -0.50211766       1.11200247      -0.27195715
H       -2.67852994       1.32456883       0.20497114
H       -1.65025709       0.77297429       1.62245225
H       -1.71248402      -0.50881461      -1.22581792
H       -0.30053049      -1.24237176       1.39993154
H       -0.77646157      -2.34520894       0.11083453
H        1.73204910      -2.02791348       0.28738306
H        1.06199451      -1.67815668      -1.31436138
H        2.60693218       0.01491902       0.19306178
H        0.73180380       0.93310070       1.48439450
H        1.37796360       2.04345585       0.26441972
H       -0.59226846       1.74218132      -1.15896157
