14
Properties=species:S:1:pos:R:3 -1440.5790868907222=T 9.541557=T 10.63959=T -9.5865=T -7.5322=T -11.008=T 0.6407=T -0.3745=T 0.288=T 9.93845=T 0.35028=T 4.3441966708=T 11.9159968936=T 0.173138931=T pbc="F F F"
N        1.79493782       0.85039346      -1.09041593
C        2.87241520       0.00667342      -0.99980079
O        3.48201320      -0.39061404      -1.98954511
C        3.25766219      -0.40794457       0.42074455
C        4.76014090      -0.42725444       0.59996477
C        5.47456863       0.67515696       1.26203294
O        5.22971808      -0.56758361       1.95531171
H        1.24679472       1.11417169      -0.28041163
H        1.44716403       1.08025978      -2.01657539
H        2.86947281      -1.42864347       0.57543325
H        2.79845075       0.23662910       1.18482008
H        5.30299707      -1.02447012      -0.13985735
H        4.90620256       1.53438773       1.63556811
H        6.52163205       0.87127812       1.01058079
