20
Properties=species:S:1:pos:R:3 -1937.8068045488587=T 13.368746=T 14.65621=T -8.5816=T -6.5112=T -9.049=T 0.9507=T 0.0501=T 1.449=T 8.50702=T -0.80514=T 6.326013692=T 0.407607234=T pbc="F F F"
C        1.03769936      -0.08972292       0.31806064
N        2.47530664       0.10764489       0.50238764
C        2.94132660       1.47608866       0.20129678
C        2.44915947       2.45960078       1.27406201
C        4.44552698       1.46712356       0.14348309
C        5.17386156       1.81609261      -0.92550073
C        6.67099626       1.82592791      -0.98664901
H        0.81069670      -1.16212621       0.39342965
H        0.65138312       0.27969981      -0.65654421
H        0.47441638       0.41673589       1.11525304
H        2.97687062      -0.53058818      -0.11955667
H        2.55606500       1.82348376      -0.78526898
H        2.81657220       2.15416310       2.26506371
H        1.35153342       2.50041083       1.31161706
H        2.81620217       3.47194042       1.05684284
H        4.94914740       1.14428297       1.06377434
H        4.64692377       2.13038111      -1.83564377
H        7.11620006       1.48721808      -0.04082539
H        7.05324965       2.83676553      -1.20268861
H        7.04106266       1.17427742      -1.79446343
