13
Properties=species:S:1:pos:R:3 -1308.6890717163608=T 10.56976=T 11.18517=T -9.4764=T -7.4423=T -10.145=T 0.8217=T -0.3635=T 0.726=T 9.68306=T -0.10443=T 4.3492057052=T 10.6529763088=T 0.602684054=T pbc="F F F"
O        1.31660694      -0.11055559       1.16448137
N        2.62728230       0.16923436       0.67576741
C        2.71260358       1.39162101      -0.01190985
N        1.75522656       2.07551918      -0.51135228
C        4.15869335       1.82459811      -0.25033202
C        5.04474282       1.64159992       0.89329913
C        5.76256300       1.47137131       1.85757398
H        1.08867740      -0.94495434       0.71264790
H        3.28204147       0.11775235       1.46430559
H        0.85635281       1.63513118      -0.26562930
H        4.11870105       2.88150990      -0.54835947
H        4.55295392       1.25919118      -1.11161016
H        6.40901481       1.34145144       2.70166771
