15
Properties=species:S:1:pos:R:3 -1545.590693836848=T 11.968928=T 11.65314=T -7.8896=T -5.9789=T -8.394=T 0.3777=T -1.1807=T -0.226=T 7.93926=T 0.69155=T 4.3236149948=T 0.336063914=T pbc="F F F"
C        1.01695257       0.06942049       0.23577989
C        2.48702603      -0.06523413      -0.15266254
N        2.70769657      -1.12820016      -1.16858977
N        3.60341036      -0.71791356      -2.12899006
C        3.78347549       0.56942168      -2.00480871
C        3.09412628       1.14176707      -0.85902219
C        2.99763521       2.44004676      -0.50983215
H        0.88393990       0.88936297       0.95563367
H        0.64666679      -0.85386147       0.70319514
H        0.40825902       0.28059609      -0.65314984
H        3.08989038      -0.29393417       0.74754304
H        2.91553072      -2.06860778      -0.83715828
H        4.38444839       1.10906208      -2.73487214
H        2.45619533       2.76350205       0.37971106
H        3.46669695       3.21610207      -1.11532712
