17
Properties=species:S:1:pos:R:3 -1683.8586534806177=T 11.054673=T 11.9511=T -9.7385=T -7.5125=T -9.737=T 1.037=T -0.2507=T 1.102=T 9.20109=T -0.53278=T 6.6535971026=T 0.455658295=T pbc="F F F"
C        0.86494880      -0.09486831      -0.01654210
C        2.39889554      -0.05858397      -0.02330331
O        2.92559930      -0.90943154       1.02026570
C        2.96857385      -0.68914775      -1.31716361
O        2.55204900      -2.03722288      -1.49522168
C        2.90014914       1.36344697       0.09596639
C        3.84824199       1.77771272       0.94281030
H        0.45413040       0.55776781      -0.80040101
H        0.47504859       0.25901294       0.94985318
H        0.51413878      -1.11867655      -0.19866124
H        2.46492087      -0.68284802       1.84715656
H        4.06986890      -0.60902513      -1.27073941
H        2.61600310      -0.12668841      -2.19378697
H        2.79430666      -2.49616123      -0.66812801
H        2.43373852       2.07862292      -0.59067263
H        4.33500114       1.07999662       1.62694509
H        4.16511543       2.82073378       0.97013275
