17
Properties=species:S:1:pos:R:3 -1692.352430797863=T 10.381872=T 11.63873=T -9.3646=T -7.1731=T -11.306=T 1.0004=T -0.0195=T 3.=T 10.65179=T -2.711=T 9.0855824926=T 11.8257970786=T 0.091105358=T pbc="F F F"
O        1.94752391      -0.25312580      -1.31489095
C        2.35172825       0.13599062       0.00525983
C        3.09996172       1.45731974      -0.11317958
C        2.25128828       2.65180983      -0.55965489
C        2.96054067       3.82113073       0.13571446
C        3.35526396       3.18893693       1.47056504
O        3.61683697       1.79606748       1.19494927
H        1.55132520      -1.13774010      -1.25832689
H        3.02185236      -0.61419413       0.46068812
H        1.48021856       0.27409319       0.67330108
H        3.95085557       1.31529559      -0.80790736
H        1.22179282       2.54401425      -0.18005121
H        2.20385879       2.74650880      -1.65145091
H        3.85760238       4.11780994      -0.42960325
H        2.32370739       4.70786816       0.25823821
H        4.26293648       3.62680703       1.91327136
H        2.53437669       3.26837773       2.20791770
