17
Properties=species:S:1:pos:R:3 -1779.743611057929=T 11.234834=T 12.31053=T -9.3311=T -7.2027=T -10.146=T 1.0085=T 0.1622=T 2.94=T 9.76041=T -2.74744=T 8.1254969016=T 11.0264841338=T 0.220930888=T pbc="F F F"
C        1.77589240      -0.00006298      -0.54842693
C        0.84501153       0.76298943       0.36623729
C        0.84493919      -0.76314201       0.36612577
C       -0.61647903      -1.02710652      -0.05248416
C       -0.88487519       0.00014157      -1.18465274
C       -0.61638427       1.02716503      -0.05230925
C       -1.35983603      -0.00001832       0.87481373
H        1.63378343       0.00000328      -1.62950613
H        2.82545675      -0.00012913      -0.24907962
H        1.25903376       1.33263331       1.19941732
H        1.25885547      -1.33295388       1.19925029
H       -0.93574328      -2.07392360      -0.13870954
H       -1.94284309       0.00021069      -1.47685351
H       -0.25769189       0.00019889      -2.08551965
H       -0.93556247       2.07402450      -0.13834337
H       -1.09539366      -0.00012562       1.94318621
H       -2.45180364       0.00004534       0.73958429
