15
Properties=species:S:1:pos:R:3 -1569.0466528064346=T 9.84929=T 10.75268=T -9.3318=T -7.2645=T -10.647=T 0.8639=T -0.8762=T 0.179=T 9.71597=T 0.54723=T 3.7585983942=T 11.8027356826=T 0.147990292=T pbc="F F F"
O        1.05161896       0.03942567       0.35205604
C        2.25514374       0.01824076       0.13880372
C        3.04901134      -1.27059086       0.00131762
C        4.01557530      -1.19916075      -1.19567488
O        4.84084682      -0.03707681      -1.13952516
C        4.05190603       1.14830530      -1.22377611
C        3.08846235       1.27822378      -0.02921016
H        2.35415172      -2.11702803      -0.08764994
H        3.64269757      -1.40224261       0.92191769
H        4.69590006      -2.06166822      -1.20143490
H        3.44033660      -1.20713318      -2.14318401
H        4.75860012       1.98896160      -1.24987961
H        3.47686542       1.15144309      -2.17142621
H        3.68627488       1.41345812       0.88819563
H        2.42010910       2.14340213      -0.13867970
