17
Properties=species:S:1:pos:R:3 -1644.6837978855465=T 10.909856=T 11.66248=T -9.1053=T -7.1704=T -9.958=T 0.7129=T -0.2761=T 0.902=T 9.19599=T -0.28888=T 4.861553053=T 6.3070190368=T 0.187169162=T pbc="F F F"
C        1.19934493      -0.10117386       0.23205645
C        2.50024571       0.38806597      -0.41563705
C        2.84616881      -0.48016546      -1.65104812
O        4.10944924      -0.17990016      -2.22932101
C        2.50804020       1.85277507      -0.83982338
N        1.32427244       2.33919302      -1.36694504
N        3.56287576       2.60002699      -0.88054322
H        0.90792039       0.53039853       1.08311237
H        1.32435113      -1.12653819       0.60822743
H        0.36483152      -0.12675790      -0.48646745
H        3.32448086       0.26879990       0.30598790
H        2.03050312      -0.38468253      -2.39389772
H        2.89953205      -1.53448524      -1.33953722
H        4.10710514       0.77129119      -2.45522223
H        0.45426852       1.97102188      -0.99702490
H        1.32954782       3.34282547      -1.53659666
H        4.36681237       2.08459532      -0.50424016
