14
Properties=species:S:1:pos:R:3 -1380.6397546777591=T 9.300254=T 9.93738=T -9.6782=T -7.392=T -9.437=T 1.0536=T -0.2042=T 1.255=T 8.8665=T -0.65108=T 6.4877410304=T 0.407399177=T pbc="F F F"
O        0.76607479       0.01730245       0.01372145
C        2.18612130       0.04667922      -0.13227125
C        2.71053517       1.44873501       0.02135662
C        1.91194846       2.51212075       0.18847829
C        4.21302099       1.57966243      -0.00945635
O        4.85179261       0.92621118       1.10471667
H        0.48361205      -0.90965339      -0.03982977
H        2.49026201      -0.32764588      -1.13198382
H        2.68343371      -0.59994786       0.61478959
H        0.82817039       2.40398038       0.22306171
H        2.33323471       3.51462405       0.28723242
H        4.48970876       2.64773023      -0.05650719
H        4.63331318       1.08524253      -0.90021465
H        4.48924188       1.33208889       1.91316628
