14
Properties=species:S:1:pos:R:3 -1508.5946544395917=T 10.630619=T 10.6212=T -8.2504=T -6.1239=T -8.071=T 0.7417=T -0.8306=T 0.507=T 7.68272=T 0.05374=T 4.4882560042=T 7.305627078=T 0.493311452=T pbc="F F F"
C        0.30862807      -1.41570347       0.21588878
C       -1.09119960      -0.95012246      -0.21123095
C       -1.32693107       0.49828525       0.13904309
C       -0.29608517       1.36923203       0.14712140
C        1.06277413       0.91616826      -0.14955117
C        1.36552178      -0.39889760      -0.13786022
H        0.53736588      -2.39316187      -0.23402676
H        0.33045743      -1.57151947       1.31351803
H       -1.86012782      -1.59420867       0.24093572
H       -1.20292024      -1.06444049      -1.30867846
H       -2.34879946       0.84079220       0.31708844
H       -0.46571340       2.42890643       0.34994463
H        1.83380831       1.66195892      -0.35509075
H        2.38858115      -0.73799905      -0.31585180
