15
Properties=species:S:1:pos:R:3 -1582.3620252818491=T 9.959953=T 10.96849=T -9.5599=T -7.4646=T -11.021=T 0.9482=T 0.0909=T 2.679=T 10.71779=T -2.61683=T 8.3622481686=T 10.3968956244=T 0.144502436=T pbc="F F F"
C       -0.93717088       0.00011009      -1.18999424
C       -0.63383525       1.03046720      -0.06830587
C       -1.31565474       0.00003981       0.90274106
C       -0.63382884      -1.03032067      -0.06838776
C        0.84670342      -0.73399488       0.26447452
O        1.59287920       0.00018185      -0.74124280
C        0.84670240       0.73412810       0.26454722
H       -2.00159082       0.00012267      -1.45533503
H       -0.29943965       0.00013736      -2.08072414
H       -0.94797455       2.07911862      -0.13189767
H       -0.99394787       0.00000617       1.95588248
H       -2.41299524       0.00003565       0.83505972
H       -0.94796760      -2.07897034      -0.13203328
H        1.43288027      -1.36264202       0.93764226
H        1.43276016       1.36271041       0.93791353
