13
Properties=species:S:1:pos:R:3 -1408.5782465847274=T 12.385012=T 12.79734=T -7.8841=T -6.1072=T -8.111=T 1.1206=T -0.4194=T 0.167=T 7.57157=T 0.41835=T 4.175290543=T 10.8186588006=T 0.378855711=T pbc="F F F"
C        0.84407745       0.05146673      -0.00333215
C        2.33861761       0.00056093      -0.00438904
C        3.22411748       1.05957824      -0.00229324
O        2.77053837       2.36182326       0.00160567
C        4.59960548       0.67315423      -0.00454712
C        4.75563171      -0.69052067      -0.00856284
S        3.22796146      -1.50241609      -0.00946615
H        0.51966757       1.09984876       0.00899632
H        0.41411861      -0.44502167       0.87977334
H        0.41344417      -0.42412180      -0.89763665
H        3.54066438       2.95429189       0.00379554
H        5.43221620       1.37739697      -0.00323604
H        5.67557954      -1.26669079      -0.01086764
