13
Properties=species:S:1:pos:R:3 -1421.2804182902603=T 10.007133=T 10.17061=T -8.8666=T -6.8474=T -9.067=T 1.4871=T -0.2047=T 0.829=T 8.75331=T -0.51962=T 5.3324270838=T 6.7993054498=T 0.577137356=T pbc="F F F"
O        1.05703293      -0.13711673      -0.51538008
C        2.48788148      -0.05610962      -0.25163317
C        2.82551810       1.18065280       0.52626610
C        3.31343541       1.13734320       1.77600458
O        3.63915504      -0.01833458       2.44699670
C        3.45081968      -1.18899003       1.74997892
C        2.96960231      -1.26159315       0.49893651
H        0.62296854      -0.17406248       0.35820129
H        2.91338517      -0.01961876      -1.26824729
H        2.61310645       2.15367975       0.08299252
H        3.52140144       2.01105113       2.39248752
H        3.76083862      -2.04562945       2.34722428
H        2.87154483      -2.24268207       0.03387213
