19
Properties=species:S:1:pos:R:3 -1794.7204680498664=T 12.168157=T 13.53898=T -8.6987=T -6.5212=T -10.053=T 1.0069=T 0.0895=T 3.508=T 9.85143=T -3.33014=T 8.2283432886=T 11.4919027806=T 0.204867332=T pbc="F F F"
C        1.28106719       0.22480334       0.61652104
N        2.57786162       0.32616990      -0.04952939
C        3.21938800       1.62289347       0.16418730
C        4.57595200       1.67763026      -0.53574847
N        5.20795795       2.98370461      -0.34074317
C        6.06183230       3.09084061       0.84965501
C        6.66352225       3.00475968      -0.51321813
H        0.81110314      -0.73604082       0.36451347
H        0.57104437       1.03961785       0.35960400
H        1.42909835       0.24606891       1.70749061
H        2.44559268       0.18490117      -1.05476386
H        3.36785795       1.75111096       1.25064378
H        2.60304133       2.48367500      -0.17413146
H        4.43862475       1.53522578      -1.62222970
H        5.20775567       0.84023542      -0.17123391
H        6.15728200       2.20561019       1.48843718
H        6.02223423       4.04574363       1.37816610
H        7.06916096       3.89644719      -0.99640001
H        7.16031326       2.06421285      -0.77512039
