11
Properties=species:S:1:pos:R:3 -1246.3917201351765=T 9.689505=T 9.39003=T -9.1887=T -7.228=T -9.706=T -0.0871=T -1.7171=T -0.595=T 9.37437=T 1.08431=T 3.6496270988=T 6.2855198644=T 0.690641332=T pbc="F F F"
O        1.02157529      -0.01028495      -0.14062018
C        2.36628358       0.03028097       0.00814302
C        3.02098692       1.27292044       0.04292033
C        4.39368872       1.22500930       0.19785515
C        5.00118483      -0.03624115       0.30442536
N        4.32028580      -1.18754244       0.26372987
N        2.99160004      -1.14822366       0.11420806
H        0.78873815      -0.96397149      -0.13719398
H        2.46010336       2.20275704      -0.04843044
H        4.99232114       2.13613254       0.23661875
H        6.08077217      -0.14110660       0.42814405
