14
Properties=species:S:1:pos:R:3 -1431.9532165885216=T 11.164021=T 12.08855=T -9.1501=T -7.1551=T -9.733=T 0.8171=T -0.2681=T 0.667=T 9.02899=T -0.05719=T 4.7512799046=T 5.9215837586=T 0.219215418=T pbc="F F F"
C        1.16101318      -0.21598998       0.11856952
N        2.46435997       0.37163971       0.36579385
C        2.81026759       1.36394697      -0.36208842
N        4.06178269       1.94220691      -0.27636469
C        4.93183105       1.54101461       0.82219848
C        6.27432447       2.09271520       0.65651151
N        7.34098773       2.54888220       0.54210577
H        1.27831775      -1.26906565      -0.18166012
H        0.57772211       0.30385337      -0.66702050
H        0.57133686      -0.21367862       1.04847350
H        2.17315534       1.82210743      -1.14179452
H        4.14788997       2.90085289      -0.60170213
H        4.98024987       0.44132478       0.83658317
H        4.53765143       1.84423018       1.81011457
