9
Properties=species:S:1:pos:R:3 -1061.3852451964317=T 9.67678=T 9.80002=T -10.2251=T -8.1838=T -9.88=T -0.4174=T -2.1654=T -1.012=T 9.28669=T 1.51914=T 4.0071283312=T 10.5806800722=T 0.320341419=T pbc="F F F"
C        0.98316635      -0.03209945       0.00197624
C        2.19442560       0.03985201      -0.00088777
C        3.60230386       0.10644663      -0.00413197
N        4.37539295       1.16998245      -0.00812337
C        5.62532546       0.60567923      -0.00972192
N        5.65968069      -0.71041466      -0.00672827
O        4.30054149      -1.06786606      -0.00308721
H       -0.08676959      -0.08885479       0.00446882
H        6.54428320       1.18689465      -0.01298455
