14
Properties=species:S:1:pos:R:3 -1369.8681980828055=T 11.457505=T 11.01223=T -8.0622=T -6.0908=T -8.612=T 0.5287=T -1.0579=T -0.059=T 8.14493=T 0.55856=T 4.6027446766=T 6.4525166078=T 0.268858374=T pbc="F F F"
C        1.06285236       0.09563793       0.16184590
C        2.54748220      -0.09788421      -0.02796547
C        3.12577352      -1.31443723       0.03454648
C        3.30616002       1.13266244      -0.29199374
N        4.59693747       1.16495573      -0.33751334
N        5.19859179       2.33843451      -0.68451328
H        0.85346308       0.76346932       1.01289948
H        0.55769319      -0.86094939       0.34435685
H        0.60684772       0.56019151      -0.72732187
H        2.53390828      -2.20630469       0.24232588
H        4.19855267      -1.43146973      -0.11967507
H        2.71741829       2.05623908      -0.45425492
H        6.13983636       2.39488102      -0.30197480
H        4.65045305       3.19391371      -0.52428209
