18
Properties=species:S:1:pos:R:3 -1704.1475022316104=T 10.633124=T 11.75066=T -9.7883=T -7.5653=T -10.955=T 0.707=T -0.3163=T 2.717=T 10.28776=T -2.42385=T 8.6606452748=T 10.418791552=T 0.10315667=T pbc="F F F"
C        3.55542999      -1.03057356       1.23256340
C        2.78507972      -0.31479353       0.12208460
O        1.36883708      -0.39615378       0.34437718
C        3.17148671       1.15917297      -0.06470980
O        2.79177556       1.86427013       1.12128250
C        4.65234204       1.41773816      -0.36004178
N        4.86762075       2.87695721      -0.34546935
H        4.62333368      -1.13462117       0.98779658
H        3.13860167      -2.03721342       1.36711707
H        3.46688112      -0.48260402       2.18134773
H        2.95602565      -0.83347064      -0.83695565
H        1.17119875       0.26847521       1.03211191
H        2.57260992       1.53629642      -0.92151675
H        3.30987103       2.69803971       1.07360173
H        4.94023597       0.92413830      -1.30755318
H        5.26324934       0.98735097       0.44713729
H        4.56485099       3.29443961      -1.22905761
H        5.85781002       3.09927142      -0.23675587
