15
Properties=species:S:1:pos:R:3 -1472.3735723786704=T 12.973344=T 12.28217=T -7.6175=T -5.7364=T -8.467=T 1.0345=T -0.5345=T -0.234=T 8.06034=T 0.75795=T 4.602856264=T 0.510970679=T pbc="F F F"
C        3.40413200      -1.20051425       0.53803844
O        2.54704518      -0.07734285       0.30673876
C        3.15885505       1.11921408       0.10314080
C        4.48643672       1.38702654       0.09387384
C        4.99061201       2.71883058      -0.13667154
N        6.26235786       2.96318168      -0.13440946
N        6.66034258       4.24485248      -0.44664614
H        2.74133895      -2.06036484       0.68327740
H        4.01914737      -1.04653867       1.43927896
H        4.06188233      -1.37748545      -0.32821826
H        2.41142094       1.89842692      -0.06531920
H        5.23325125       0.60926286       0.25839585
H        4.25491566       3.52620002      -0.31914187
H        7.55896909       4.44307705      -0.01029804
H        5.97122302       4.97810384      -0.23205953
