12
Properties=species:S:1:pos:R:3 -1384.5258422292702=T 12.663974=T 12.54454=T -9.4076=T -7.4783=T -8.945=T -0.6882=T -2.3156=T -0.686=T 8.52882=T 1.16459=T 3.9216523828=T 11.0145566806=T 0.515193011=T pbc="F F F"
C        0.93965780       0.14159993      -0.06793366
C        2.43520280      -0.00697107      -0.05571490
C        3.09726781      -1.19553172       0.03360429
C        2.46647188      -2.45314720       0.12687012
C        1.96806882      -3.56178429       0.20781554
C        3.20251864       1.19397033      -0.14570627
N        3.79188882       2.20261405      -0.22151511
H        0.60768436       0.76269660       0.77650059
H        0.45670528      -0.83955785      -0.00248892
H        0.60986702       0.64611013      -0.98757051
H        4.19034211      -1.19173859       0.03411230
H        1.52479466      -4.53427029       0.27983653
