15
Properties=species:S:1:pos:R:3 -1531.951878195455=T 10.609456=T 11.2439=T -8.9011=T -6.8803=T -9.876=T 1.2903=T -0.4135=T 0.705=T 9.49644=T -0.07772=T 4.9743679144=T 11.1878271156=T 0.237957771=T pbc="F F F"
C        1.08797215       0.17779393       0.48067329
C        2.48020753      -0.13017180      -0.00753491
C        3.35327582       0.94519178      -0.56131581
N        3.63300850       0.42519508       0.80508753
N        4.70110200      -0.54581571       0.73447286
C        4.27579809      -1.61155501       0.15546215
C        2.85465443      -1.56577773      -0.34800102
H        1.03375849       1.19898580       0.88003944
H        0.79368832      -0.51760507       1.28117357
H        0.35586545       0.08947131      -0.33636493
H        2.98131773       1.97211669      -0.58746264
H        4.08532832       0.68846183      -1.33111298
H        4.94583735      -2.46887417       0.04621502
H        2.79009645      -1.81859867      -1.41855506
H        2.21073938      -2.28420825       0.18985348
