21
Properties=species:S:1:pos:R:3 -2019.3508083641582=T 12.264567=T 13.82851=T -9.8701=T -7.7186=T -11.788=T 0.8876=T -0.0465=T 2.755=T 11.33315=T -2.4488=T 9.54878179=T 10.1823998444=T 0.093032263=T pbc="F F F"
C        1.52100180      -0.50372979      -0.81025578
C        2.79269036      -0.52678912       0.04036444
C        3.60379643       0.77345529      -0.03968306
O        2.78750873       1.90446148       0.32801104
C        4.91620732       0.75244643       0.77728014
C        5.83345225      -0.41896476       0.39805833
C        5.66774224       2.08241759       0.63344316
H        0.95575131      -1.44015509      -0.70171495
H        1.76468264      -0.38142431      -1.87691007
H        0.86655403       0.33066611      -0.52444196
H        3.42716544      -1.36926283      -0.27532834
H        2.53715992      -0.71623904       1.10058371
H        3.85967387       0.96737482      -1.09855942
H        2.51071699       1.76689848       1.25313209
H        4.62769182       0.63001031       1.84113770
H        6.06616283      -0.40190105      -0.67944451
H        5.39414719      -1.39711832       0.63511963
H        6.78798937      -0.34642055       0.93975146
H        6.02863748       2.21139806      -0.40008725
H        6.54367208       2.10997340       1.29784562
H        5.02046589       2.93622288       0.86999802
