15
Properties=species:S:1:pos:R:3 -1614.7238635751837=T 10.235222=T 11.25215=T -8.9679=T -6.9228=T -10.201=T 1.269=T -0.3631=T 0.62=T 9.36223=T 0.12642=T 3.9930807174=T 11.7952965226=T 0.155451966=T pbc="F F F"
O        1.12381760       0.02807963       0.06272554
C        2.33156714       0.01321153       0.09780656
C        3.46351132       1.06029461       0.02925965
C        4.09257950       0.02421870      -0.96342125
C        3.43920247      -1.05371949      -0.03301665
C        4.20905798      -0.83023993       1.28659478
C        4.22714172       0.74189821       1.33290358
H        3.27819299       2.10594658      -0.23557593
H        5.19105024       0.01306402      -1.01327813
H        3.64997719       0.05888376      -1.96655413
H        3.23007436      -2.07741971      -0.35887117
H        3.69124314      -1.27209551       2.14906556
H        5.22054807      -1.25772953       1.23931724
H        5.24824354       1.14800562       1.31020287
H        3.71905275       1.14393151       2.22027148
