17
Properties=species:S:1:pos:R:3 -1735.3412210656627=T 13.142023=T 13.24987=T -8.7308=T -6.7305=T -8.485=T 0.3137=T -1.1707=T 0.166=T 7.9376=T 0.38602=T 5.0366088864=T 0.747400878=T pbc="F F F"
C        1.17094736       0.02776359      -0.08908923
C        2.67242706      -0.04863890       0.03679863
C        3.28161664      -1.37734108       0.11322138
C        2.61380752      -2.54624811       0.06427620
C        3.40396430       1.09638969       0.07501164
C        4.88515865       1.24445279       0.22659134
O        5.22247771       1.96906911       1.42804487
H        0.83102776       1.07016509      -0.12681685
H        0.67566846      -0.46604375       0.76130398
H        0.82346296      -0.47885668      -1.00285182
H        4.36800717      -1.41684529       0.22473769
H        1.53018597      -2.59607256      -0.05183448
H        3.14374038      -3.49597596       0.13848812
H        2.86420224       2.04864239       0.03051779
H        5.28837308       1.86048212      -0.59249469
H        5.41226381       0.27696860       0.19544562
H        4.76847892       1.51932893       2.16347979
