13
Properties=species:S:1:pos:R:3 -1342.7418477540332=T 8.925707=T 9.62978=T -9.419=T -7.3893=T -10.634=T 0.7479=T -0.1942=T 0.64=T 9.72156=T 0.03538=T 4.4341981082=T 6.4244957718=T 0.146202839=T pbc="F F F"
C        0.95092862      -0.03701718       0.17808565
C        2.45323173       0.06497815      -0.02547416
C        3.22369805       1.12731121       0.81474306
C        4.01158707      -0.06438333       1.41239178
O        4.92930930      -0.20570497       2.19572636
N        3.25920663      -0.95891499       0.67612550
H        0.54471378      -0.94181123      -0.29730283
H        0.44525243       0.83057029      -0.27036525
H        0.70445400      -0.07075727       1.24926673
H        2.70015297       0.11880250      -1.09910211
H        2.61296227       1.67275263       1.54560177
H        3.84597928       1.82870815       0.24581047
H        3.35995387      -1.96375396       0.53672305
