20
Properties=species:S:1:pos:R:3 -1957.6958897852605=T 12.336045=T 13.60632=T -8.1987=T -6.1937=T -9.734=T 0.9249=T 0.0092=T 3.208=T 8.97901=T -2.92075=T 7.807522406=T 11.0926430634=T 0.158475574=T pbc="F F F"
C        1.00021565      -0.03434844      -0.02052552
C        2.52344202       0.02510323       0.04865683
C        3.08391616       1.16353162       0.91146922
C        4.51374903       0.69250555       1.19324173
C        4.35852228      -0.83018262       1.39354998
C        5.55462267      -1.64510462       0.90754366
N        3.08961777      -1.17767226       0.69805564
H        0.66401440      -0.89026220      -0.62421733
H        0.59116607       0.87918642      -0.47858919
H        0.57982207      -0.14762548       0.98958283
H        2.91479627       0.15876732      -0.98384833
H        2.50561416       1.23229575       1.84813294
H        3.03181236       2.13782418       0.40582926
H        5.15270825       0.88918503       0.31524634
H        4.97845379       1.18436693       2.05968671
H        4.22634292      -1.03528812       2.47341039
H        5.74791583      -1.46018990      -0.16139355
H        5.38322567      -2.72331052       1.04808807
H        6.46360710      -1.38069158       1.46899353
H        3.23269555      -1.93286027       0.02685681
