18
Properties=species:S:1:pos:R:3 -1750.02290918023=T 11.758524=T 12.6421=T -9.2003=T -6.9303=T -9.583=T 0.9608=T -0.1217=T 1.262=T 9.03487=T -0.6863=T 6.657056312=T 0.454672762=T pbc="F F F"
C        0.92788812      -0.18702861       0.05933380
C        2.45285225      -0.03215576      -0.03998074
O        3.09799169      -0.74994701       1.03499855
C        3.01041166      -0.68580871      -1.32470142
N        2.62043427      -2.09672864      -1.41300740
C        2.82561987       1.43710142      -0.03543534
C        3.74357836       1.99827520       0.75758471
H        0.42378030       0.37063650      -0.74340304
H        0.56671600       0.21172274       1.01955558
H        0.65783374      -1.24594168      -0.03205199
H        2.66396194      -0.48057673       1.86356471
H        4.10374573      -0.51018352      -1.31715276
H        2.59664265      -0.15121331      -2.19429608
H        3.06550090      -2.60558570      -0.64446759
H        2.97933212      -2.49925448      -2.28058246
H        2.27799897       2.05624779      -0.75515170
H        4.31145406       1.39923342       1.47229222
H        3.95672735       3.06680708       0.70787095
