15
Properties=species:S:1:pos:R:3 -1513.4329902976779=T 10.328061=T 11.23305=T -9.3902=T -7.3058=T -10.583=T 0.6831=T -0.3143=T 0.641=T 9.7174=T 0.04138=T 4.4278252278=T 11.984858718=T 0.169031074=T pbc="F F F"
N        2.11407164      -0.42030674      -1.37615545
C        2.15104175       0.16657180      -0.03136390
C        3.23997757       1.23167486       0.04147145
C        2.96840042       2.57375648      -0.69395685
C        3.06535628       3.23723478       0.70077385
O        3.02274279       4.36718609       1.14397501
N        3.25675838       2.00309547       1.30024720
H        1.29097758      -1.01663070      -1.47710974
H        2.92575774      -1.02602048      -1.52166894
H        2.31387478      -0.56598638       0.78665646
H        1.18147754       0.65200839       0.16421037
H        4.22510988       0.79728055      -0.20521980
H        1.98649301       2.64360543      -1.17795756
H        3.74932157       2.90336297      -1.38947586
H        3.53874906       1.75677749       2.24830377
