12
Properties=species:S:1:pos:R:3 -1280.1904676048778=T 9.573237=T 9.67743=T -9.6502=T -7.7001=T -10.663=T -0.4082=T -2.2938=T -1.702=T 10.36694=T 2.06886=T 3.1709047542=T 12.230103026=T 0.378279507=T pbc="F F F"
O        1.10549527      -0.16155984       0.38261233
C        2.29088236      -0.00523732       0.11137807
C        2.90790691       1.31570678      -0.02244711
N        4.17350994       1.39778987      -0.30551565
O        4.56371514       2.70465549      -0.38598867
C        3.39264752       3.59463950      -0.14748785
C        2.22542398       2.64901164       0.14584284
H        2.98678626      -0.86000505      -0.05336207
H        3.26505442       4.19217918      -1.05949354
H        3.66496855       4.24898323       0.69000731
H        1.38591063       2.75309348      -0.55509505
H        1.81828902       2.75181304       1.16158940
