15
Properties=species:S:1:pos:R:3 -1538.5033338792798=T 9.484837=T 10.44013=T -9.453=T -7.232=T -10.976=T 0.9211=T 0.0154=T 2.8=T 10.71784=T -2.59258=T 8.7938434346=T 11.7605556454=T 0.20662946=T pbc="F F F"
C       -0.84837606       0.00002235      -1.18337491
C       -0.58286760       1.04495004      -0.06188427
C       -1.14701634      -0.00022829       0.93989280
C       -0.58288068      -1.04517344      -0.06213233
O        0.83237449      -1.19076383       0.19014092
C        1.52970444      -0.00010970      -0.16373341
O        0.83238879       1.19047356       0.19041488
H       -1.91057599       0.00006132      -1.45928380
H       -0.23647952       0.00012656      -2.09453887
H       -1.00078395       2.05805257      -0.12194718
H       -0.71865513      -0.00035346       1.94997604
H       -2.24575615      -0.00022244       0.97151046
H       -1.00080064      -2.05825866      -0.12243988
H        1.72808857       0.00001468      -1.25272149
H        2.47900578      -0.00018125       0.38793104
