18
Properties=species:S:1:pos:R:3 -1718.7323067372306=T 10.604314=T 12.08703=T -10.1635=T -7.8018=T -12.091=T 0.9534=T -0.0336=T 2.918=T 11.58391=T -2.69822=T 9.9200206712=T 11.6601021882=T 0.15349937=T pbc="F F F"
C        0.95083620      -0.07086828       0.00658008
C        2.48010592      -0.03525491       0.01186435
C        3.05085991       1.38629760       0.00151353
C        4.58200095       1.42984860       0.01189669
C        5.13573530       2.85279807       0.02358589
O        6.56713629       2.90997855      -0.02123566
H        0.57189857      -1.10294461       0.01394292
H        0.54407163       0.42744933      -0.88686017
H        0.53765625       0.44259170       0.88850716
H        2.86622541      -0.58631498      -0.86291442
H        2.85905047      -0.57043017       0.89981337
H        2.66002934       1.93941072       0.87475022
H        2.67554135       1.92081074      -0.88971735
H        4.98402214       0.90166665      -0.86876189
H        4.95624149       0.88935902       0.90125852
H        4.74783141       3.40172972       0.90395332
H        4.79879422       3.39779716      -0.87205386
H        6.90419316       2.45865510       0.77256730
