15
Properties=species:S:1:pos:R:3 -1543.47585906328=T 11.744362=T 11.47686=T -7.8247=T -5.979=T -8.345=T 0.4707=T -1.1021=T -0.117=T 7.91176=T 0.64053=T 4.0055165132=T 6.3698923374=T 0.265013672=T pbc="F F F"
C       -1.39353082       0.67946125       0.15216079
C       -1.49903296      -0.81185357      -0.17742891
C       -0.27675100      -1.59260591       0.18485207
C        0.96453353      -1.09755165       0.40347368
C        1.48834492       0.25137035       0.23858191
N        0.96195507       1.34960768      -0.23101538
N       -0.34866804       1.39026773      -0.59242565
H       -2.34208573       1.17912933      -0.09202590
H       -1.22161537       0.79640203       1.23789000
H       -1.73653269      -0.93148561      -1.24718891
H       -2.36422970      -1.22982161       0.36863010
H       -0.42016981      -2.66630162       0.33602795
H        1.72872137      -1.81701912       0.71286214
H        2.55125018       0.36817315       0.47136441
H       -0.59816895       2.35659756      -0.79238830
