11
Properties=species:S:1:pos:R:3 -1150.8023138895453=T 8.298919=T 8.37512=T -9.6973=T -7.5695=T -10.205=T 0.0056=T -1.8709=T -0.88=T 9.80941=T 1.40805=T 3.4149587966=T 5.3622829126=T 0.459828039=T pbc="F F F"
C        0.97107171       0.02894734       0.02620590
C        2.46784526      -0.04741891       0.00910797
C        3.18900937      -1.17346693       0.17195192
C        3.22153800       1.21197649      -0.20333116
O        2.70426767       2.30751426      -0.36538700
H        0.63155530       0.71651158       0.81443678
H        0.51993796      -0.95706772       0.18982691
H        0.59792171       0.44374077      -0.92146081
H        2.72146815      -2.14602451       0.33369810
H        4.28099791      -1.14175757       0.14561755
H        4.33594695       1.09139519      -0.20625616
