12
Properties=species:S:1:pos:R:3 -1268.5859518832324=T 11.593101=T 11.9428=T -8.4531=T -6.6995=T -9.18=T 0.5606=T -1.0997=T -0.511=T 8.58617=T 1.06606=T 4.466657643=T 10.5675623534=T 0.379355939=T pbc="F F F"
C        3.08212193      -1.11449188       0.52533215
O        2.32797709       0.07911389       0.28392433
C        3.05226775       1.22685104       0.14232544
C        2.44173408       2.44730410      -0.09463435
S        3.65864223       3.65101462      -0.21454828
N        4.94775816       2.61200783       0.03530726
C        4.47182669       1.38115561       0.20607249
H        2.34516543      -1.92019793       0.61045469
H        3.65506775      -1.04246385       1.46402515
H        3.76595037      -1.33144663      -0.31127505
H        1.38065352       2.65382492      -0.19464078
H        5.18652499       0.57686828       0.38178695
