14
Properties=species:S:1:pos:R:3 -1419.7784345880846=T 10.026408=T 11.07399=T -9.9459=T -7.5655=T -9.859=T 0.8343=T -0.1912=T 2.289=T 9.45739=T -1.94268=T 4.3815288554=T 10.6227609206=T 0.365402155=T pbc="F F F"
C        0.89769740       0.06987857       0.16993725
C        2.41267424       0.00779021      -0.01382227
O        2.77317852      -0.68748658      -1.21101368
C        3.03671156       1.42331002       0.04259675
C        4.49157558       1.43677688      -0.01281499
C        5.70455281       1.44360024      -0.04764180
H        0.62871051       0.50579349       1.14333309
H        0.47237974      -0.94042118       0.11182756
H        0.43089921       0.68599083      -0.61602167
H        2.85841270      -0.59634235       0.79215450
H        2.40462878      -0.19329330      -1.96641408
H        2.70237625       1.91969351       0.96967467
H        2.62671577       2.02424276      -0.79006432
H        6.77454694       1.44399688      -0.08343102
