13
Properties=species:S:1:pos:R:3 -1340.7790274749302=T 10.483179=T 10.31808=T -8.7752=T -6.8977=T -9.284=T 0.4758=T -1.1864=T -0.139=T 8.70251=T 0.60986=T 4.7161298736=T 5.3132836454=T 0.384327282=T pbc="F F F"
O        1.26275112       0.16198004       0.62943127
N        2.66233118       0.08353197       0.53064686
C        3.23025887      -1.14082442      -0.04091556
C        4.54502471      -0.64803432      -0.57494191
C        4.59873276       0.69472885      -0.52001759
C        3.34417411       1.22289361       0.04193872
N        2.97010668       2.45351061       0.05456814
H        0.93393791       0.37011567      -0.27648884
H        2.58611615      -1.53898495      -0.84931799
H        3.33161759      -1.92939162       0.72223550
H        5.32471458      -1.31876084      -0.93179736
H        5.40800432       1.34463614      -0.84389269
H        2.04348004       2.53522923       0.49766144
