10
Properties=species:S:1:pos:R:3 -1157.1440450393388=T 8.959476=T 9.06953=T -10.1106=T -8.0305=T -10.274=T -0.2431=T -2.0691=T -1.392=T 9.68707=T 1.96127=T 3.4354536824=T 11.6129131166=T 0.291062616=T pbc="F F F"
O        2.65696806      -1.15548272       0.06722933
C        2.13842157      -0.04976210       0.00394270
C        2.88938933       1.20670132       0.00213891
C        2.39973779       2.48969538      -0.06522580
O        3.39749507       3.38164544      -0.04201529
N        4.63886932       2.67545803       0.04572200
C        4.30549092       1.40771098       0.06953784
H        1.02823054       0.06637499      -0.05853685
H        1.39433323       2.89753264      -0.13121977
H        5.08232417       0.64957604       0.13494691
