15
Properties=species:S:1:pos:R:3 -1574.1229904379484=T 11.598962=T 11.86158=T -8.4535=T -6.5415=T -8.882=T 0.9769=T -0.5893=T 0.2=T 8.28592=T 0.27288=T 4.8579202632=T 5.2285888088=T 0.424352104=T pbc="F F F"
C        0.99809868       0.05550649       0.04424822
C        2.48535249      -0.03111146       0.01397935
C        3.28266810      -1.11386478      -0.07468952
C        4.72986539      -0.71441096      -0.07660429
N        4.65705045       0.72698023       0.13549506
C        3.33771515       1.18575005       0.06706352
N        2.86674731       2.38756804       0.06206453
H        0.53340551      -0.93490926      -0.03858288
H        0.63871773       0.69583010      -0.77454506
H        0.66129562       0.53549335       0.97504063
H        2.96117676      -2.15335916      -0.12771253
H        5.30100048      -1.21653490       0.72569062
H        5.22025539      -0.97080842      -1.03535377
H        5.41403566       1.32708272      -0.17561811
H        3.62139527       3.08592798       0.10155423
