12
Properties=species:S:1:pos:R:3 -1281.700031233099=T 11.59715=T 12.02603=T -8.8945=T -6.9349=T -8.58=T 0.7334=T -0.8042=T 0.03=T 8.10112=T 0.66713=T 4.31905231=T 10.9739016712=T 0.204731615=T pbc="F F F"
O        2.89106872      -0.81204579      -1.11628544
C        2.22156425      -0.03381270      -0.12218218
C        2.83168172       1.33603886      -0.09629640
N        2.29071849       2.37299160       0.49066073
C        3.10650056       3.47466340       0.38303886
C        4.28198360       3.28291008      -0.29812700
S        4.39439260       1.64272778      -0.84015980
H        2.67446575      -1.74626787      -0.96510374
H        2.32521419      -0.48917031       0.87985930
H        1.14296658       0.07135095      -0.33543688
H        2.78805836       4.41985852       0.82151340
H        5.06383519       4.00222549      -0.52303085
