12
Properties=species:S:1:pos:R:3 -1285.8961763483542=T 9.739981=T 10.84965=T -10.316=T -8.1423=T -11.145=T 0.7613=T -1.0661=T 0.442=T 10.39858=T -0.27907=T 5.365742122=T 10.4267018588=T 0.112902687=T pbc="F F F"
C        0.97832504      -0.09152138      -0.17312590
N        2.41562550       0.01271750       0.09719006
C        2.89426301       1.39841671       0.05553694
C        2.39588823       2.15430103       1.22664989
N        1.95865081       2.76542134       2.11622683
C        4.36649608       1.43037574       0.01288508
N        5.52720022       1.43668109      -0.08076693
H        0.70433899      -1.15323353      -0.18255816
H        0.66679912       0.36680629      -1.13230655
H        0.41828989       0.39060515       0.64018697
H        2.95153619      -0.52800671      -0.58484989
H        2.54284690       1.96460677      -0.84002835
