12
Properties=species:S:1:pos:R:3 -1340.151719896277=T 11.14319=T 11.44349=T -9.4894=T -7.4081=T -9.256=T -0.0773=T -1.7287=T -0.471=T 8.82157=T 0.95245=T 4.0114802398=T 6.2906032904=T 0.194310503=T pbc="F F F"
N        1.19418404      -0.07493265      -0.65394346
C        2.37404330      -0.04310521       0.05299966
O        2.80137112      -0.99586039       0.69318653
C        3.08760597       1.30162628       0.03435366
C        2.40184832       2.46164417       0.14015278
C        4.50743233       1.25263206      -0.01296334
C        5.71977078       1.19429970      -0.08129569
H        1.02378641       0.60368515      -1.38858035
H        0.74506670      -0.98292413      -0.73574122
H        1.31427398       2.46562457       0.21217953
H        2.92217235       3.41747772       0.19781506
H        6.78785471       1.13708272      -0.13086316
