16
Properties=species:S:1:pos:R:3 -1676.2990387470861=T 12.747795=T 12.54608=T -8.3698=T -6.3962=T -8.259=T 0.8057=T -0.7423=T 0.413=T 7.72974=T 0.14301=T 5.0304591808=T 0.697202109=T pbc="F F F"
C        0.86405388      -0.03443367      -0.12259567
C        2.20640221      -0.02695232      -0.00135176
C        2.99045489       1.24296358       0.25885597
N        4.27884920       1.18589574      -0.44254239
C        5.11541989       0.08435409       0.03561245
C        4.35461935      -1.20866538       0.02074530
C        3.00756359      -1.24456899      -0.03612025
H        0.28144462       0.88779583      -0.08929609
H        0.31449108      -0.96843142      -0.25459837
H        2.42857058       2.11619843      -0.10227991
H        3.10715767       1.35303092       1.36249195
H        4.77396810       2.07094396      -0.32348934
H        5.51108836       0.24659808       1.06761912
H        5.99650180       0.00127237      -0.62226782
H        4.93576069      -2.13309885       0.04664342
H        2.48148409      -2.20156237      -0.09176661
