22
Properties=species:S:1:pos:R:3 -2079.252702019351=T 13.091755=T 14.41153=T -8.6001=T -6.4689=T -10.036=T 0.8656=T -0.0533=T 2.914=T 9.30694=T -2.56743=T 8.1026834776=T 10.479358713=T 0.14584808=T pbc="F F F"
C        0.93722614       1.74586773       1.05306815
N        2.39073868       1.84913469       1.16300211
C        3.07944969       1.24510631       0.02236303
C        4.61421921       1.43050590       0.04782737
C        5.20827063       0.79903044       1.32059855
C        5.19364219       0.71770935      -1.18574812
C        4.96806639       2.92649592      -0.00516618
H        0.46857191       2.14846581       1.96214511
H        0.56350746       0.71066461       0.89734237
H        0.59085304       2.35366024       0.20245454
H        2.68725515       1.37472188       2.01900058
H        2.68550592       1.72786202      -0.89003931
H        2.85557038       0.15727008      -0.07976163
H        4.88045141       1.32677116       2.22907180
H        6.30764908       0.84784847       1.29895949
H        4.92276046      -0.26135907       1.41125730
H        4.77817523       1.13514723      -2.11623374
H        4.96929351      -0.36029356      -1.16851054
H        6.28732518       0.83395166      -1.22545490
H        4.61270762       3.37955245      -0.94386293
H        6.05789072       3.07252647       0.04806056
H        4.49811000       3.46693021       0.82778642
