15
Properties=species:S:1:pos:R:3 -1556.2917227525747=T 9.982207=T 11.07011=T -9.4074=T -7.3494=T -10.555=T 0.6588=T -1.1013=T -0.017=T 9.74132=T 0.75171=T 3.6588764544=T 11.9322142624=T 0.080742202=T pbc="F F F"
C        0.91812938      -0.07603228       0.49070631
C        2.28071528       0.09186752      -0.18378676
C        3.23000647       1.16318365       0.44928979
C        3.99040547       0.03205809       1.23535215
O        5.38657162       0.03599405       1.38620239
C        3.36578323      -0.92576820       0.21742676
O        3.81851043      -1.91943337      -0.31272529
H        0.40469976      -0.97260850       0.11655044
H        0.27956181       0.79415104       0.28210336
H        1.01155982      -0.16942466       1.58233361
H        2.16409854       0.15483645      -1.27578351
H        2.75857837       1.93571009       1.06909225
H        3.88579515       1.62644125      -0.29895473
H        3.52425882      -0.08784459       2.22918336
H        5.75077584      -0.54731057       0.69240987
