15
Properties=species:S:1:pos:R:3 -1556.4755174362608=T 10.531197=T 11.34282=T -8.4949=T -6.3923=T -9.189=T 0.771=T -0.2764=T 1.25=T 8.6319=T -0.66979=T 6.2152445996=T 0.41848311=T pbc="F F F"
O        1.00875372       0.08719649      -0.13683929
C        2.41909248      -0.06489565       0.01744742
C        2.94079072       1.05939387       0.91833110
O        4.14376243       0.54799425       1.52397764
C        4.13760130      -0.83647405       1.47322328
C        5.15039533      -1.56133009       1.96566241
C        2.87319359      -1.30997415       0.79901768
H        0.71631207      -0.49753490      -0.85572946
H        2.92548075      -0.02352664      -0.96359132
H        2.18708273       1.28643950       1.69265661
H        3.19841668       1.97989061       0.37928780
H        5.12337176      -2.64610688       1.89447100
H        6.00356348      -1.08552517       2.44603970
H        3.03688829      -2.19910740       0.17718300
H        2.09913466      -1.54384978       1.54908242
