13
Properties=species:S:1:pos:R:3 -1452.8021248538946=T 11.938298=T 12.7288=T -9.4358=T -7.6108=T -9.987=T -0.5294=T -2.1863=T -1.01=T 9.20408=T 1.68091=T 3.2926466076=T 10.165364168=T 0.410944181=T pbc="F F F"
C        1.00062989       0.02787259       0.00122710
C        2.45085893       0.05427680       0.00404369
C        3.66995823       0.04966311       0.00413183
C        5.11764180      -0.03326933      -0.00234909
O        5.69055495      -1.12251021      -0.09406192
C        5.88766038       1.23180203       0.10319493
C        5.33079777       2.44769207       0.20619399
H        0.57500082       1.04127611       0.01297586
H        0.62463031      -0.51249730       0.88261080
H        0.62610563      -0.49321801      -0.89215097
H        6.97139264       1.09173752       0.09108613
H        4.24536656       2.56781583       0.21653822
H        5.94042209       3.34870878       0.28157942
