12
Properties=species:S:1:pos:R:3 -1313.5811417834072=T 10.302618=T 10.97123=T -9.4276=T -7.3204=T -9.858=T 0.5445=T -1.2848=T 0.09=T 9.60675=T 0.67852=T 3.6911376116=T 11.1421010788=T 0.298923388=T pbc="F F F"
O        1.15504304      -0.00911502       0.78621200
C        2.26920797      -0.03471032       0.33984606
C        3.24802471       0.98514261      -0.24144497
N        4.31924316      -0.05716496      -0.21481695
C        3.35541124      -1.15626244       0.15261217
C        3.04527439      -2.12135003      -0.88036670
C        2.79020130      -2.89712507      -1.78022163
H        3.45001257       1.86624747       0.38695307
H        2.92831041       1.32529805      -1.24208072
H        4.73527678      -0.22125227      -1.13359594
H        3.62505384      -1.65810030       1.09777752
H        2.56618059      -3.59123772      -2.56438391
