19
Properties=species:S:1:pos:R:3 -1872.6999989257408=T 12.528967=T 13.45679=T -8.4345=T -6.3599=T -9.265=T 0.8441=T -0.0658=T 1.356=T 8.77954=T -0.84791=T 6.3547908426=T 0.436796791=T pbc="F F F"
C        1.11186384      -0.48032537       0.14058788
C        2.61159747      -0.77250452       0.08083089
C        3.09076420      -1.39264327       1.39871433
C        2.93865852      -1.66356654      -1.12308993
O        3.20543663       0.56000090      -0.10006966
C        4.56318817       0.65192775      -0.18781479
C        5.19079471       1.82183940      -0.37104562
H        0.78099510       0.00709987      -0.78647541
H        0.88566203       0.18754377       0.98283207
H        0.54525386      -1.41264885       0.26913031
H        2.89186306      -0.70867293       2.23530688
H        4.16607350      -1.61781778       1.38331985
H        2.55706412      -2.33537383       1.58541767
H        2.62001456      -1.17595582      -2.05474046
H        2.41152180      -2.62414586      -1.03469229
H        4.01356750      -1.87944660      -1.19577423
H        5.12430133      -0.28315564      -0.09844482
H        4.64097413       2.75836349      -0.46113106
H        6.27640548       1.83997182      -0.43029162
