17
Properties=species:S:1:pos:R:3 -1665.9230604160857=T 11.297594=T 12.30873=T -9.8844=T -7.6082=T -9.716=T 1.5872=T -0.1268=T 1.295=T 9.19963=T -0.75561=T 6.773665145=T 0.445404664=T pbc="F F F"
C        2.47997948       0.86415113      -2.29530054
O        2.33780687       1.97167201      -1.39957587
C        2.77542353       1.67240934      -0.09078947
O        4.16848287       1.46460024       0.02592597
C        4.93286614       2.66954979      -0.17774768
C        6.37068023       2.38308269       0.11673895
C        7.37751180       2.68387972      -0.70925222
H        2.06568422       1.18397830      -3.25874760
H        1.91570454      -0.01237582      -1.92827178
H        3.53621071       0.57892973      -2.42316569
H        2.31783918       0.73461507       0.27291064
H        2.45153730       2.53290101       0.52212528
H        4.55093511       3.45036069       0.51249572
H        4.80721097       3.04198471      -1.20856514
H        6.57263402       1.91648266       1.08630735
H        7.19620226       3.14074969      -1.68548258
H        8.41603076       2.49203906      -0.43644534
