12
Properties=species:S:1:pos:R:3 -1311.762314478253=T 10.75628=T 11.89875=T -10.092=T -7.7247=T -9.751=T 0.9227=T -0.0139=T 1.967=T 9.5407=T -1.78086=T 4.3681259688=T 10.6337708774=T 1.479602798=T pbc="F F F"
C        0.96673945      -0.00217464       0.00026607
C        2.18047581      -0.02205087       0.00016533
C        3.63655127      -0.01075875      -0.00013153
C        4.21483973       1.42994566      -0.00664171
C        5.67105721       1.44154980      -0.00725529
C        6.88476272       1.42056921      -0.00716168
H       -0.10409435       0.00457420       0.00040741
H        4.01462245      -0.55457256      -0.88016666
H        4.01494483      -0.54674097       0.88455675
H        3.83698883       1.97362638       0.87354633
H        3.83624948       1.96592504      -0.89122380
H        7.95560256       1.41345750      -0.00727122
