20
Properties=species:S:1:pos:R:3 -1941.442946716776=T 12.376072=T 13.68158=T -9.0987=T -6.9161=T -10.503=T 0.9119=T -0.013=T 2.994=T 9.83857=T -2.68869=T 8.4933757622=T 10.2933921116=T 0.104896603=T pbc="F F F"
C        2.29872655      -0.44223035      -1.47703801
C        2.51692754       0.01351803      -0.02621020
N        3.21420256      -0.96946197       0.82503985
C        3.26969860       1.33920291       0.03582839
C        2.60415868       2.61978515      -0.54622518
C        3.19842518       3.41976005       0.64443642
C        3.39275866       2.07629896       1.39764260
H        1.73878603       0.30529444      -2.06063199
H        1.73363161      -1.38600864      -1.51141332
H        3.26553340      -0.60859655      -1.97983231
H        1.52633397       0.17739184       0.43952722
H        4.13525736      -1.16992864       0.42058092
H        2.70572357      -1.85792697       0.81189296
H        4.27273136       1.20640849      -0.41213354
H        1.50612386       2.55637871      -0.47844948
H        2.87601345       2.92950716      -1.56508214
H        4.16228295       3.87868686       0.37919546
H        2.56446340       4.18530037       1.11271605
H        4.31310872       1.93377120       1.97870203
H        2.53356253       1.83971895       2.04382427
