19
Properties=species:S:1:pos:R:3 -1811.3812833159286=T 11.835701=T 12.79747=T -8.7802=T -6.6238=T -10.226=T 0.858=T -0.0947=T 3.002=T 9.66163=T -2.67793=T 8.1245298108=T 10.3098822496=T 0.117063849=T pbc="F F F"
C        1.86411097      -0.57202227      -1.28222708
C        2.38752345       0.06347038       0.00893846
C        3.32141340       1.26335631      -0.19575800
N        4.52509285       0.85428112      -0.90359655
C        2.54147880       2.56378191      -0.61481985
N        2.44933042       2.92658886       0.82385889
C        3.58583344       2.01820138       1.13713793
H        1.13825749      -1.36571196      -1.05565604
H        2.66741905      -1.03740456      -1.87333773
H        1.35377499       0.16501800      -1.92140712
H        2.93352557      -0.69029374       0.59969822
H        1.54022183       0.40702784       0.62213293
H        5.10323525       1.66864998      -1.12358709
H        4.28885146       0.41200912      -1.79493905
H        1.56931151       2.45518546      -1.12380202
H        3.19178198       3.22900874      -1.21574288
H        2.62196491       3.91239379       1.02931385
H        4.58070572       2.50328017       1.12061703
H        3.48046690       1.44641948       2.07352609
