19
Properties=species:S:1:pos:R:3 -1821.6597018502896=T 11.408655=T 12.97394=T -9.9704=T -7.7072=T -11.731=T 0.9343=T -0.0049=T 2.974=T 11.29163=T -2.71624=T 9.3672166916=T 13.788979004=T 0.110403545=T pbc="F F F"
C        1.06600500       0.99940980       0.52685543
C        2.51842127       0.56591257       0.47458959
O        3.33425502       1.71490387       0.23670193
C        4.72423148       1.39915462       0.16034718
C        5.45895188       2.66723615      -0.26046382
C        6.95164891       2.43434228      -0.42786986
O        4.94339802       3.14267317      -1.51070309
H        0.41949243       0.13038678       0.71152603
H        0.76181032       1.46010286      -0.42327754
H        0.90608975       1.72829855       1.33309056
H        2.67972497      -0.17755364      -0.33127107
H        2.81890166       0.08924175       1.42880925
H        4.89412029       0.60404772      -0.59338026
H        5.09581357       1.04140134       1.14131751
H        5.28955757       3.43173655       0.52482433
H        7.13972121       1.66222172      -1.18811534
H        7.40882162       2.11952186       0.52066932
H        7.43886698       3.36210853      -0.75517663
H        3.97183803       3.10718354      -1.42348350
