16
Properties=species:S:1:pos:R:3 -1663.8836621710586=T 11.183579=T 11.82217=T -8.3409=T -6.3011=T -8.724=T 1.3809=T -0.0687=T 1.309=T 8.32151=T -0.6841=T 5.7469246804=T 0.226811441=T pbc="F F F"
C        1.12302140       0.04832087      -0.46891846
C        2.38646757      -0.19229858       0.31662190
C        3.56485556      -0.98879751      -0.17787778
C        3.66877890      -1.22739990      -1.63941125
C        3.77469040      -0.06149820      -2.29635089
C        3.78902235       1.08888994      -1.31932930
N        3.67237394       0.49198821       0.03973777
H        0.74212650       1.06443238      -0.28043819
H        0.34531094      -0.65880925      -0.14504072
H        1.26345629      -0.07266488      -1.55091314
H        2.21853867      -0.24857206       1.39837955
H        4.10486221      -1.63882026       0.51764445
H        3.64993112      -2.21932477      -2.09100861
H        3.81925033       0.06290907      -3.37948420
H        4.72893721       1.66531479      -1.37262236
H        2.96905662       1.80787016      -1.49707879
