18
Properties=species:S:1:pos:R:3 -1737.269994255322=T 11.252045=T 12.60442=T -8.935=T -6.7437=T -10.324=T 0.8747=T -0.0728=T 2.711=T 9.5971=T -2.39096=T 8.087854752=T 10.9745463984=T 0.317201642=T pbc="F F F"
C        1.37245641      -0.31472655      -0.72726704
N        2.82812228      -0.18003081      -0.73700440
C        3.31330099       0.76153190       0.27260241
C        4.83226601       0.82783854       0.28102541
C        5.56081609      -0.43759786       0.66498912
C        5.49535248       1.85036469      -0.55546025
O        5.35786218       2.04749636       0.86518937
H        1.05934820      -0.97681025      -1.54621673
H        0.82464012       0.64618150      -0.82552980
H        1.05659016      -0.78222417       0.21806593
H        3.12886358       0.14414291      -1.66017204
H        2.96894095       0.40392703       1.25928905
H        2.91835980       1.79323956       0.15195067
H        6.64743509      -0.30240577       0.59351266
H        5.24933665      -1.26388313       0.01136972
H        5.31250352      -0.71427619       1.70076749
H        4.89100474       2.52245485      -1.17691114
H        6.51900076       1.67676741      -0.90569044
