19
Properties=species:S:1:pos:R:3 -1805.8610531169334=T 12.123504=T 13.41413=T -8.8296=T -6.7454=T -10.271=T 0.9897=T 0.0821=T 3.142=T 9.64427=T -2.83208=T 8.3076447342=T 11.3351844766=T 0.230764102=T pbc="F F F"
C        0.95929998       0.14220222      -0.10541117
C        2.46027899      -0.00423263      -0.02444325
C        3.29782463      -0.87126169      -0.91694433
C        2.76711091      -1.70245866      -2.05983500
N        3.79083163      -1.78511314      -3.11635182
N        3.28317111       0.59265504      -1.08500411
C        4.48176194       1.30163857      -0.64365322
H        0.64828608       1.11794658       0.29789457
H        0.45675849      -0.64017782       0.48347805
H        0.60436195       0.08113882      -1.14157936
H        2.86558100       0.09832328       0.99266411
H        4.20452946      -1.28652913      -0.45598830
H        1.80239005      -1.28402449      -2.40177649
H        2.57023892      -2.72428551      -1.69397922
H        3.92120415      -0.84906269      -3.51138087
H        3.45255112      -2.37261532      -3.88199093
H        4.21939603       2.34166980      -0.39882368
H        5.21987521       1.31604107      -1.45900081
H        4.95854836       0.84242574       0.24642584
