8
Properties=species:S:1:pos:R:3 -881.9277142584448=T 7.297055=T 7.47968=T -9.946=T -7.9161=T -10.728=T 0.6969=T -1.2495=T -0.347=T 9.81407=T 0.82719=T 3.9210820472=T 10.9629785046=T 0.365572125=T pbc="F F F"
N        1.01871333       0.00388642       0.00000000
C        2.38667301      -0.07088302       0.00000000
O        3.01498070      -1.12690645       0.00000000
C        3.05373699       1.22723900       0.00000000
C        3.67385125       2.27097309       0.00000000
H        0.53612679       0.89528730       0.00000000
H        0.48855330      -0.86172623       0.00000000
H        4.23251463       3.18546989       0.00000000
