16
Properties=species:S:1:pos:R:3 -1542.5732758612264=T 10.41898=T 11.17119=T -9.6799=T -7.5181=T -10.496=T 1.2115=T -0.3727=T 0.466=T 9.89264=T 0.22049=T 5.587801048=T 6.4568313206=T 0.211396927=T pbc="F F F"
C        1.05106200      -0.10905619      -0.11016885
C        2.36936476       0.59900713       0.01079073
C        3.62766683      -0.22949515       0.14068892
C        4.38626633      -0.42094433      -1.18682501
O        5.14581230       0.71377173      -1.58975870
N        2.31008521       1.88587689      -0.01652017
O        3.62018610       2.47525339       0.08016409
H        0.23289120       0.60775197      -0.24426577
H        0.85842385      -0.71389141       0.78960379
H        1.06609701      -0.80100207      -0.96674710
H        3.34531332      -1.22224948       0.52380671
H        4.30996943       0.23291559       0.87087671
H        3.66898368      -0.71391574      -1.97986701
H        5.09876602      -1.25332520      -1.06844940
H        4.70583802       1.50827192      -1.22640667
H        3.40340393       3.42384095       0.06826774
