12
Properties=species:S:1:pos:R:3 -1388.544174611124=T 10.363535=T 10.1376=T -9.3135=T -7.4641=T -9.369=T 0.8545=T -0.6338=T 0.073=T 9.14802=T 0.51318=T 4.5520963956=T 6.1467175374=T 0.581196274=T pbc="F F F"
O        0.96287793      -0.04407359       0.09811460
C        2.32364132       0.03367174       0.00995304
C        3.02620156       1.24418190      -0.03456857
C        4.41904763       1.19821163      -0.12487316
N        5.14002528       0.06622322      -0.17254701
C        4.43987873      -1.08251432      -0.12817904
C        3.05122680      -1.16158714      -0.03822220
H        0.59665670       0.85889054       0.12254066
H        2.50459136       2.20383019       0.00012532
H        4.98616208       2.13362022      -0.16070896
H        5.02866491      -2.00415471      -0.16698998
H        2.53520570      -2.12111968      -0.00548470
