16
Properties=species:S:1:pos:R:3 -1678.0304289972444=T 11.974303=T 12.35262=T -8.2671=T -6.2307=T -8.233=T 0.8236=T -0.6721=T 0.685=T 7.75667=T -0.13193=T 4.6527358318=T 7.1683001844=T 0.611047209=T pbc="F F F"
N        2.98378124      -1.14621204      -0.55459172
C        2.38776836      -0.01144627       0.16351345
C        3.29818754       1.23015525       0.07389945
C        2.79534333       2.42997529       0.83406012
C        2.74564445       3.49602217      -0.00181162
C        3.18084046       3.08269475      -1.33958144
C        3.49804469       1.76507146      -1.31948498
H        2.31071414      -1.91278136      -0.61472555
H        3.78544772      -1.50836273      -0.03104201
H        2.17911308      -0.21283213       1.23323062
H        1.42555434       0.22996638      -0.31416019
H        4.28922532       0.94464779       0.48682359
H        2.53600736       2.41515584       1.89166394
H        2.43506132       4.50684109       0.26334489
H        3.22605467       3.74301834      -2.20574375
H        3.83275199       1.14696617      -2.14905479
