11
Properties=species:S:1:pos:R:3 -1201.3695791757975=T 9.6634=T 9.30463=T -9.2806=T -7.2723=T -9.223=T -0.1435=T -1.8465=T -0.24=T 8.81732=T 0.74613=T 4.1254357724=T 6.1972914268=T 0.41549186=T pbc="F F F"
O        0.75866744      -1.05305821      -0.77884620
C       -0.40514562      -1.46121765      -0.14595305
C       -1.38429679      -0.60004901       0.20226966
C       -1.31119032       0.81503080      -0.11726590
N       -0.24506726       1.55949538      -0.19679397
N        0.93819364       1.07263963       0.30347629
C        1.39701316      -0.07795080       0.03069216
H       -0.46173647      -2.54205445       0.00995337
H       -2.30204323      -1.00925189       0.62854944
H       -2.24524226       1.33248901      -0.36309582
H        2.36349773      -0.40307280       0.42240403
