14
Properties=species:S:1:pos:R:3 -1477.6180385715306=T 11.874664=T 12.06082=T -8.5748=T -6.5573=T -8.28=T 0.8511=T -0.7176=T 0.65=T 7.84134=T -0.04466=T 4.057193878=T 11.3531624466=T 0.435170998=T pbc="F F F"
C        0.90376342       0.06692915      -0.10688546
C        2.40043373      -0.02075156      -0.03245754
C        2.99210231      -1.39901587      -0.05085921
C        3.16004798       1.10047280       0.04763826
C        4.57448918       1.12901202       0.12191979
C        5.78954760       1.20263688       0.18613517
H        0.54883013       1.10554516      -0.08791221
H        0.43857683      -0.47441838       0.73332235
H        0.52975273      -0.41094884      -1.02759967
H        2.60552986      -1.99571470       0.79175273
H        4.08692936      -1.37437307       0.00845859
H        2.69983556      -1.93415389      -0.96939961
H        2.66081480       2.07489825       0.05722587
H        6.85700651       1.25999205       0.24306093
