17
Properties=species:S:1:pos:R:3 -1625.5108754328894=T 11.204119=T 11.93456=T -9.4891=T -7.4255=T -10.615=T 0.7652=T -0.1857=T 0.378=T 9.96827=T 0.18841=T 4.376891779=T 6.2102603624=T 0.213616814=T pbc="F F F"
C        0.21731329       0.13805403       1.81255886
C        0.81023911       1.13545678       0.82759508
N        2.02201938       1.79858201       1.34882609
C        2.70261772       2.59211255       0.32021485
N        1.72201747       2.59607580       2.46325763
C        2.29205553       2.36838572       3.68889469
O        2.08407908       3.05413405       4.68170410
H       -0.65940767      -0.35244281       1.36778446
H       -0.10663299       0.63176058       2.73860094
H        0.95352472      -0.63514618       2.07290747
H        0.04800656       1.89059069       0.53280864
H        1.11692824       0.61800296      -0.09416461
H        2.99246832       1.92965961      -0.50653905
H        3.60874648       3.03605365       0.75014731
H        2.06557384       3.40464206      -0.08769215
H        1.09901126       3.40825197       2.36157312
H        2.96150966       1.47984651       3.65828256
