15
Properties=species:S:1:pos:R:3 -1502.906023106838=T 10.376706=T 10.95244=T -8.3519=T -6.4518=T -10.175=T 0.844=T -0.1607=T 0.472=T 9.7126=T 0.20363=T 4.247822353=T 6.0666845744=T 0.100618521=T pbc="F F F"
C        1.01841107      -0.01520615       0.08606560
N        2.48050892      -0.01092115       0.06400024
C        3.03313367       1.13618718       0.82755698
C        4.41355803       0.65502390       1.26102167
C        4.22597159      -0.85783845       1.38485020
O        5.00111715      -1.68573771       1.84353771
N        2.98508652      -1.13804974       0.83300129
H        0.63822035      -0.88915794      -0.46070788
H        0.67122385       0.88572517      -0.43824193
H        0.60727858      -0.02309979       1.11500860
H        2.40900436       1.34054788       1.72229289
H        3.03699234       2.02658977       0.18594794
H        5.17678638       0.82109652       0.48455057
H        4.77500207       1.09433728       2.19729576
H        2.88081513      -2.04197677       0.37119035
