11
Properties=species:S:1:pos:R:3 -1198.2212159248738=T 10.737859=T 10.40384=T -9.6605=T -7.7468=T -9.958=T -0.7408=T -2.4539=T -1.398=T 9.38592=T 1.9393=T 4.7046859658=T 4.9369489396=T 0.524207407=T pbc="F F F"
O        1.01614451      -0.22045024       0.15042018
N        2.40756821      -0.19472466       0.10254378
C        2.86151919       1.01689303      -0.08849414
C        2.07617614       2.23973794      -0.24172500
C        2.62206457       3.45228549      -0.43637951
C        4.29590201       1.09610456      -0.14563448
N        5.45353482       1.23995452      -0.20339698
H        0.83826144      -1.16802704       0.29413987
H        0.99522739       2.11175246      -0.18831062
H        3.70305217       3.59410699      -0.49197462
H        1.99330955       4.33555694      -0.54509849
