20
Properties=species:S:1:pos:R:3 -1940.0565282324037=T 13.061576=T 14.22632=T -9.234=T -6.9185=T -9.433=T 0.9459=T -0.0011=T 1.378=T 8.86867=T -0.79332=T 6.619922505=T 0.440869381=T pbc="F F F"
C        1.40415862       0.35084266       0.80587098
C        2.69488588       0.55296462      -0.00799913
C        2.45239005       0.21257031      -1.49299269
C        3.71353511       0.22314376      -2.35581275
N        3.37951519      -0.09126176      -3.75386632
C        3.20108540       1.96196823       0.15794264
C        4.36402687       2.31337791       0.71821935
H        1.57156864       0.55629039       1.87228756
H        1.03740675      -0.68161164       0.70542063
H        0.60843962       1.02535284       0.45261213
H        3.46520399      -0.13503530       0.38628668
H        1.72141047       0.91821523      -1.92397617
H        1.98702946      -0.78804197      -1.54833676
H        4.46172515      -0.46300998      -1.90476419
H        4.16138550       1.22924126      -2.33454895
H        3.05392923      -1.05960713      -3.82203776
H        4.21888750      -0.03370382      -4.33444639
H        2.52978084       2.74733344      -0.21464439
H        5.06066981       1.56260913       1.10112727
H        4.66057593       3.35907182       0.81479827
