16
Properties=species:S:1:pos:R:3 -1639.0823691965174=T 10.763456=T 11.98369=T -9.309=T -7.2811=T -10.695=T 0.6964=T -0.2775=T 0.554=T 9.65819=T 0.10259=T 4.3431179926=T 11.810534402=T 0.216439156=T pbc="F F F"
N        1.84045462       1.03228690      -1.56699670
C        2.50279255       0.04451329      -0.88081791
O        2.51851421      -1.12179247      -1.26670875
C        3.18059632       0.48544492       0.41818222
C        4.60353950      -0.02723385       0.50754235
C        5.74671322       0.80653550      -0.01991177
C        5.57539265       0.60651616       1.47088705
H        1.92150431       2.00957184      -1.31335958
H        1.41373881       0.78988754      -2.45625237
H        2.57923462       0.06340914       1.24144799
H        3.16096335       1.58137446       0.53530071
H        4.68620403      -1.10581547       0.36057561
H        5.51462287       1.79235266      -0.42765789
H        6.56897014       0.29486062      -0.52021648
H        6.28284364      -0.04024883       1.99082833
H        5.22817516       1.45840757       2.05863720
