14
Properties=species:S:1:pos:R:3 -1333.1922860768082=T 11.4903=T 12.57415=T -8.9763=T -6.9411=T -9.464=T 0.8032=T -0.2553=T 0.054=T 8.93645=T 0.31659=T 4.9013153632=T 6.1088894088=T 0.2819278=T pbc="F F F"
C        1.94452552      -1.92145350       0.32480892
S        1.86765615      -0.25329426      -0.32963035
O        2.20322693       0.66805587       0.75792101
O        2.55592699      -0.26279360      -1.62083690
N        0.20931834      -0.03944817      -0.60643772
C       -0.36603585      -0.14349924      -1.88201694
C       -1.59952194       0.27401981      -2.19801219
H        1.55323112      -2.61061405      -0.43099681
H        1.35902561      -1.96078074       1.24892493
H        3.00350906      -2.12492421       0.52310195
H       -0.20365650       0.60581667       0.06723236
H        0.29110015      -0.61603477      -2.61356149
H       -2.25786015       0.75862061      -1.47561358
H       -1.96985542       0.13558958      -3.21096318
