12
Properties=species:S:1:pos:R:3 -1317.6122032486326=T 9.245958=T 9.94609=T -8.3654=T -6.2996=T -8.343=T 0.8061=T -0.2401=T 0.07=T 7.96072=T 0.56218=T 4.0666664084=T 11.7364651656=T 0.310739285=T pbc="F F F"
C        0.91781129      -0.07798836      -0.00587512
C        2.40444242       0.02923230      -0.00312219
C        3.19659190       1.14161443      -0.00357003
O        2.90513533       2.46033019      -0.00644323
O        4.51851310       0.77230825      -0.00065470
C        4.45712180      -0.61222457       0.00152496
N        3.25258939      -1.08590939       0.00009787
H        0.45731179       0.91777600       0.00135891
H        0.56172888      -0.63035503       0.87620800
H        0.56317767      -0.61646570      -0.89718785
H        3.73902901       2.96458570      -0.00469651
H        5.40811740      -1.13361382       0.00427988
