13
Properties=species:S:1:pos:R:3 -1375.3714910541084=T 10.008175=T 10.51529=T -8.9863=T -7.112=T -8.991=T 0.9429=T -0.2045=T 0.427=T 8.3517=T 0.10756=T 4.9643126498=T 6.4513387408=T 0.285427081=T pbc="F F F"
O        2.04372474      -0.42667274      -1.33333169
C        2.42163387      -0.06284839       0.01183936
C        2.89817283       1.35170240       0.02419219
C        2.13472025       2.50898512      -0.08612444
N        3.01004003       3.54823813      -0.04457740
N        4.30236017       3.16280774       0.09062992
C        4.22942039       1.82580672       0.12713223
H        1.73577758      -1.34963441      -1.30860044
H        3.23127032      -0.71809546       0.38077608
H        1.55992317      -0.18086788       0.69436173
H        1.06575452       2.65868873      -0.20134309
H        2.79768461       4.53880746      -0.10169110
H        5.14080751       1.24142257       0.23061665
