18
Properties=species:S:1:pos:R:3 -1740.940580681226=T 11.060313=T 12.26828=T -9.5203=T -7.4065=T -10.99=T 0.8633=T -0.1969=T 2.59=T 10.32467=T -2.25586=T 8.477604743=T 11.3643583824=T 0.142699764=T pbc="F F F"
C        0.55060522       0.54859796       0.38525483
C        1.84977306       0.20258409      -0.35058289
C        3.06741158       1.01938491       0.06496050
C        3.66163602       0.77851053       1.44057707
O        2.80179591       1.11717767       2.53765550
C        4.02986575       1.45134834      -0.98999500
N        3.05633511       2.42293862      -0.44306897
H       -0.29380839      -0.00683195      -0.04710063
H        0.33031821       1.62147636       0.28462496
H        0.61063277       0.30619512       1.45348116
H        1.70127958       0.35863695      -1.43033859
H        2.08786114      -0.86699401      -0.21851565
H        4.62261431       1.32570650       1.51706433
H        3.88194803      -0.29247620       1.57285756
H        2.50278944       2.03497164       2.40766227
H        3.84791493       1.15690399      -2.02651956
H        5.08441208       1.55668608      -0.71993275
H        3.54759526       3.03612339       0.21925586
