17
Properties=species:S:1:pos:R:3 -1734.3305667525703=T 11.741567=T 12.87713=T -8.0996=T -6.0551=T -8.245=T 1.0166=T 0.1733=T 2.429=T 7.83085=T -2.03599=T 5.6806913592=T 11.351104279=T 0.205863495=T pbc="F F F"
C       -1.74431714       0.95161569       0.33257525
C       -1.39828491      -0.39602628      -0.26735071
C       -0.41934552      -1.38941782       0.46261702
C        0.89862667      -0.87428282      -0.13052703
C        2.12233988      -0.00034135       0.02614920
C        0.73417363       0.63132355       0.08641887
C       -0.59124109       0.87813798      -0.64268933
H       -2.67416608       1.41483749      -0.00446235
H       -1.51349454       1.13804800       1.38460755
H       -2.11968428      -0.82227340      -0.96864455
H       -0.47171686      -1.29323199       1.55769943
H       -0.65344954      -2.43296916       0.19882368
H        0.81773175      -1.04727337      -1.21323219
H        2.67895065       0.11389024       0.96056216
H        2.75100195       0.02173859      -0.86728781
H        0.56228226       0.81760605       1.15505276
H       -0.66917682       1.34574860      -1.62543196
