13
Properties=species:S:1:pos:R:3 -1353.0762138274144=T 9.774547=T 10.24651=T -9.9909=T -7.9789=T -9.818=T 0.1982=T -1.5851=T 0.06=T 9.4657=T 0.52405=T 4.8876645046=T 9.659687267=T 0.277150592=T pbc="F F F"
O        2.60603755      -0.82541412      -1.03328595
C        2.33428934      -0.08728152       0.16971394
C        2.90048764       1.29975404       0.10618555
N        2.13814018       2.35069792       0.10566946
N        2.96999018       3.52831946      -0.01674489
C        4.20275542       3.14137412      -0.09250681
C        4.35023716       1.65875922      -0.02181061
H        2.08719691      -0.41078952      -1.74620216
H        2.80897197      -0.66310400       0.97833287
H        1.25510525      -0.01751817       0.37909095
H        5.01102549       3.86732878      -0.19650733
H        4.82314248       1.21850521      -0.91470762
H        4.94931043       1.32775858       0.84336261
