13
Properties=species:S:1:pos:R:3 -1419.4892262731203=T 11.096143=T 11.02516=T -9.0521=T -7.0085=T -8.84=T 0.3224=T -1.3366=T -0.298=T 10.44341=T 1.05301=T 4.2397384658=T 5.2901354592=T 0.68784289=T pbc="F F F"
C        0.66469322      -1.16147915      -1.45569963
C        0.73799408       0.00731804      -0.79783412
C        1.96342581       0.71510912      -0.43597867
C        1.96546709       1.88759911       0.22809392
O        3.10138532       0.01595713      -0.87508203
C        4.38696650       0.40212812      -0.62405624
O        4.77355065       1.36976040      -0.01379460
H       -0.30161967      -1.61216433      -1.67929370
H        1.55901568      -1.69112288      -1.78329114
H       -0.17711537       0.51470224      -0.48249707
H        0.99810436       2.30979699       0.49833836
H        2.87012380       2.41686004       0.50183439
H        5.04171851      -0.35656483      -1.09579946
