15
Properties=species:S:1:pos:R:3 -1565.5050398107742=T 11.98411=T 12.36381=T -8.3176=T -6.4581=T -8.608=T 0.6872=T -0.6826=T 0.088=T 8.12513=T 0.43578=T 4.7013259452=T 0.31194625=T pbc="F F F"
C        2.19191051      -0.54676362       1.44371408
C        2.26985497       0.07659912       0.04161727
C        2.87223797       1.46805219       0.03419465
C        2.15392132       2.62314195      -0.07428982
N        0.79650623       2.72461649      -0.25397267
C        4.28167908       1.56918375       0.18004292
N        5.44779463       1.59808802       0.30709834
H        1.76550021      -1.55920926       1.39976656
H        1.56886355       0.06026997       2.11663351
H        3.19283477      -0.61916954       1.89169569
H        1.26899275       0.10426301      -0.41884026
H        2.87483108      -0.57071358      -0.61264813
H        2.68152632       3.57839202      -0.07262150
H        0.21192942       1.92128560      -0.04620192
H        0.36430718       3.62241388      -0.07204872
