14
Properties=species:S:1:pos:R:3 -1454.855918642361=T 9.872592=T 10.75361=T -9.5927=T -7.5083=T -10.964=T 0.8717=T -1.1498=T -0.48=T 10.34969=T 0.95463=T 3.6800036688=T 12.4661227756=T 0.20108348=T pbc="F F F"
C        1.64933409      -0.91117897       0.07402438
N        2.97041202      -0.30919737      -0.00940848
C        3.19214992       1.01557241       0.25084071
O        2.30859474       1.81073783       0.57060532
C        4.64245884       1.47068663       0.07547192
C        4.74529376       2.46612284      -1.06840639
O        5.60339628       2.41883903      -1.92825342
H        1.64160206      -1.74693668       0.78833397
H        1.31482965      -1.27404881      -0.90911837
H        0.95848396      -0.13383506       0.42073544
H        3.75766629      -0.88497593      -0.29024809
H        5.36442609       0.65911410      -0.08615603
H        4.90702329       2.01118031       0.99890195
H        3.96033898       3.26024968      -1.05960290
