14
Properties=species:S:1:pos:R:3 -1447.2880882402035=T 9.568069=T 10.34444=T -9.4156=T -7.3768=T -10.72=T 0.8684=T -0.2638=T 0.405=T 9.84302=T 0.28871=T 4.3448289994=T 6.4123575424=T 0.126675473=T pbc="F F F"
C        0.97367598      -0.02739937       0.17028483
C        2.46641653       0.07101875      -0.08237355
O        2.66547422       0.15845760      -1.48231641
C        3.23216123       1.11642595       0.81414414
N        3.88949172      -0.02765754       1.46436395
C        3.32315846      -1.00790409       0.67767885
O        3.46834353      -2.21262047       0.61224784
H        0.75596330      -0.04408851       1.24624342
H        0.58461516      -0.94809536      -0.28347426
H        0.46146215       0.83270105      -0.28389595
H        3.57900504      -0.10890070      -1.68674961
H        2.60298173       1.72078364       1.48415791
H        3.91511453       1.76157532       0.24229196
H        4.54479643      -0.08570629       2.24231688
