13
Properties=species:S:1:pos:R:3 -1396.7505896521354=T 13.135716=T 12.81102=T -8.7368=T -6.8304=T -8.838=T -0.2478=T -1.8092=T -0.439=T 8.27606=T 0.90106=T 3.9182799636=T 4.2936599772=T 0.317561972=T pbc="F F F"
N        1.16122688      -0.16838667      -0.52449428
C        2.50373753      -0.18719264      -0.14432184
N        3.18897926      -1.22583520       0.20271432
C        3.15914382       1.13673567      -0.23269113
C        4.44517460       1.32834851       0.13593770
C        5.11642814       2.56761317       0.07659123
C        5.73368690       3.61751684       0.03919115
H        0.66480663       0.71469313      -0.43843449
H        0.60492194      -0.97774429      -0.26417648
H        2.60593304      -2.07222568       0.22792329
H        2.57146422       1.97693361      -0.61094195
H        4.99964266       0.45714105       0.50192387
H        6.27142440       4.54272249       0.00591861
