13
Properties=species:S:1:pos:R:3 -1343.1291935654672=T 10.216747=T 11.20099=T -10.1452=T -7.9713=T -11.=T 1.1955=T -0.641=T 0.082=T 10.51986=T 0.53478=T 5.380682435=T 11.6619743768=T 0.336789262=T pbc="F F F"
O        0.95690813       2.41600638      -0.09344921
N        2.36700350       2.50613149      -0.09101869
C        2.90558481       1.35021540       0.03150470
C        4.39520701       1.20365963       0.05846105
C        5.14972838       2.53731372      -0.07207528
C        6.59578007       2.34995536      -0.04100309
N        7.74968612       2.18107652      -0.01532204
H        0.69325623       3.34891100      -0.19092656
H        2.28950859       0.44446626       0.11930650
H        4.70144074       0.51991641      -0.75093572
H        4.68749403       0.69860455       0.99434641
H        4.85962632       3.22061753       0.73989038
H        4.87416606       3.04113574      -1.01045845
