14
Properties=species:S:1:pos:R:3 -1475.1753380481716=T 10.97821=T 11.27265=T -7.9662=T -5.9989=T -7.942=T 0.7214=T -0.3635=T 0.937=T 7.44394=T -0.32855=T 4.6809178496=T 6.1847440436=T 0.440935062=T pbc="F F F"
C        0.91245570       0.03637015       0.07096289
C        2.40077402       0.09571427       0.03240670
C        3.29288249       1.15848549      -0.04354682
C        4.61877418       0.63859230      -0.03331055
C        4.53126597      -0.74051169       0.04882198
N        3.18712944      -1.03970571       0.06911646
O        2.68273260      -2.32772872       0.25393699
H        0.50978826       1.05546735       0.11621448
H        0.54947796      -0.51624940       0.95052796
H        0.48708685      -0.45112938      -0.82137087
H        3.00474945       2.20460988      -0.09896157
H        5.54241557       1.20762812      -0.07675483
H        5.27500011      -1.52673547       0.10624704
H        2.55334742      -2.67842720      -0.65098985
