13
Properties=species:S:1:pos:R:3 -1385.8417782542479=T 10.405446=T 10.67067=T -7.0384=T -5.1164=T -7.72=T 0.8791=T -0.1048=T 0.997=T 7.24375=T -0.43293=T 4.5462814522=T 5.8840531964=T 0.368509431=T pbc="F F F"
N        0.90610553       0.00194856      -0.23550695
C        2.31195240      -0.00228368      -0.07866389
C        3.15490344       1.09224931      -0.01104919
N        4.46638009       0.60138154       0.03959672
C        4.43728448      -0.76068451       0.01480162
O        5.63419476      -1.42514475       0.06535392
C        3.12252487      -1.18729764      -0.06205504
H        0.50084882       0.90691198       0.00243574
H        0.45931838      -0.71115511       0.34176415
H        2.95345010       2.15693256      -0.00637065
H        5.31313336       1.15437713       0.08755537
H        5.44567219      -2.37833453       0.02985928
H        2.77738159      -2.21549084      -0.12237107
