17
Properties=species:S:1:pos:R:3 -1597.8212921759202=T 11.46017=T 12.06198=T -8.4745=T -6.5374=T -9.648=T 0.8543=T -0.3068=T 0.891=T 8.98529=T -0.22218=T 4.4975425556=T 5.988709779=T 0.177167377=T pbc="F F F"
C        1.09207742      -0.00887821      -0.54200132
N        2.52082947       0.25812208      -0.58219195
C        2.95676816       1.35067159      -0.06203688
C        2.12486622       2.45224304       0.54595980
N        4.35599362       1.51538734       0.03726004
C        5.19029220       0.62203809      -0.76094334
O        4.73194982       2.89042209      -0.22546762
H        0.88711512      -0.93600563      -1.09415399
H        0.48838832       0.79568178      -0.99943280
H        0.72147917      -0.15197390       0.49007111
H        1.28740818       2.02129298       1.11103499
H        1.69913859       3.08868936      -0.24435143
H        2.71545440       3.09377305       1.20670282
H        4.92347123      -0.40846915      -0.50546886
H        6.23941142       0.81334491      -0.50451197
H        5.03424533       0.76733504      -1.84262416
H        5.27203132       3.11799554       0.55436557
