14
Properties=species:S:1:pos:R:3 -1493.0032822389314=T 11.148745=T 12.51045=T -9.2346=T -7.1707=T -9.635=T 0.612=T -0.3039=T 0.535=T 9.57224=T 0.15853=T 4.1175874586=T 10.268768492=T 0.528375155=T pbc="F F F"
C        1.02170561      -0.00745138      -0.20401947
C        2.47086639       0.01809034      -0.06578391
C        3.68102050       0.01071962       0.06593279
C        5.12987564       0.04202713       0.19961795
C        5.86614742       1.25602739      -0.41359512
N        5.06810402       2.17083430      -1.02920633
O        7.08682203       1.35083131      -0.33060602
H        0.58880328       0.99669194      -0.08128663
H        0.56788448      -0.65945932       0.55726207
H        0.72107951      -0.38625263      -1.19216330
H        5.58471700      -0.84910030      -0.26171438
H        5.42643605       0.01429906       1.26025325
H        4.06222517       2.03291057      -1.06222254
H        5.49580291       2.98973198      -1.44760836
