16
Properties=species:S:1:pos:R:3 -1620.8577630901448=T 10.726208=T 12.0597=T -10.1594=T -7.9872=T -11.744=T 0.8188=T -0.1729=T 1.411=T 11.35155=T -1.03972=T 5.3730820932=T 11.9371489052=T 0.222028751=T pbc="F F F"
C        1.93228830      -0.82341058       1.55145662
O        3.15582388      -0.14367446       1.29067722
C        2.98777236       1.09772264       0.59831141
C        2.41055450       2.20151634       1.48033937
C        4.40321210       1.43604773       0.08478881
C        4.43259017       2.62016301      -0.76261332
N        4.43668647       3.56845999      -1.44194083
H        2.20146960      -1.80166150       1.96831545
H        1.35190614      -0.97536280       0.62260868
H        1.30087974      -0.28956071       2.28249227
H        2.32713407       0.93791883      -0.27774028
H        3.04378531       2.35086366       2.36711996
H        1.39452472       1.95468555       1.81457342
H        2.35568643       3.14698993       0.92329005
H        4.79124010       0.57738825      -0.48290564
H        5.07331612       1.58924411       0.94559682
