14
Properties=species:S:1:pos:R:3 -1417.752251568292=T 9.921796=T 10.94532=T -10.1217=T -7.6708=T -9.906=T 0.9691=T -0.0401=T 2.29=T 9.50839=T -1.87865=T 4.3577731378=T 10.446316444=T 0.468564052=T pbc="F F F"
O        0.83910679       0.05117189      -0.06737687
C        2.25471031      -0.15420564      -0.18166743
C        2.93657042       1.18107327       0.07510869
C        4.47429126       1.09129510       0.01748080
C        4.99931623       0.72156329      -1.29341865
C        5.42670120       0.42147270      -2.38979536
H        0.39608011      -0.78252685      -0.29641705
H        2.52431317      -0.52370384      -1.18717499
H        2.60396029      -0.90045030       0.55881717
H        2.64005868       1.54681161       1.07028614
H        2.57805192       1.91403739      -0.66329719
H        4.83320336       0.36387170       0.76643028
H        4.90231589       2.06398104       0.30914614
H        5.80609038       0.15721864      -3.35546167
