17
Properties=species:S:1:pos:R:3 -1722.0501306066424=T 11.482842=T 12.5779=T -9.763=T -7.5=T -9.75=T 1.3667=T -0.0755=T 1.134=T 9.21919=T -0.58381=T 6.671004737=T 0.439039418=T pbc="F F F"
C        2.94818846       2.30356955       2.75192373
C        3.55776711       1.50746195       1.86646214
C        3.26010813       1.45352512       0.39492997
C        4.49691366       1.66687922      -0.50069445
C        5.07117236       3.05980345      -0.39700106
C        6.22976586       3.38105607       0.45145793
O        6.37616624       3.26890829      -0.97925406
H        3.20337964       2.28143385       3.81230568
H        2.16646473       3.00322659       2.44435569
H        4.33678929       0.82059521       2.22034155
H        2.48100877       2.19343576       0.14606806
H        2.83710984       0.46309607       0.15263250
H        4.21632309       1.48138048      -1.55024157
H        5.28319615       0.93651181      -0.24944046
H        4.36415470       3.87515215      -0.60536616
H        6.70248039       2.58030425       1.03044177
H        6.34654157       4.39154020       0.85690873
