13
Properties=species:S:1:pos:R:3 -1332.0941617648343=T 10.234417=T 9.92077=T -8.782=T -6.6904=T -8.586=T 0.6462=T -0.9392=T 0.296=T 8.04881=T 0.19423=T 5.2644207628=T 0.75209804=T pbc="F F F"
C        1.02309899      -0.01659993       0.22833369
C        2.51057327      -0.11451695       0.00977900
C        3.08075359      -1.23920057      -0.47391464
C        3.34967100       1.04181097       0.33198220
C        2.91719423       2.21981639       0.81821041
H        0.58902599       0.80181779      -0.36672223
H        0.79145151       0.19481427       1.28376281
H        0.52067703      -0.95028361      -0.05348847
H        2.48662476      -2.11921611      -0.72471113
H        4.15939139      -1.30319322      -0.62989808
H        4.42165068       0.90788366       0.15108745
H        1.86201718       2.41348971       1.01891919
H        3.61507037       3.02996761       1.03034981
