16
Properties=species:S:1:pos:R:3 -1595.0230218576194=T 11.225065=T 12.23379=T -9.7488=T -7.5473=T -9.838=T 0.8064=T -0.1694=T 2.18=T 9.40578=T -1.78417=T 4.3501232016=T 10.542219615=T 0.472362466=T pbc="F F F"
C        0.88370330       0.00418321       0.04627750
C        2.41250591       0.06202281       0.01583789
O        2.90362339      -0.60479474       1.18386019
C        2.98073890      -0.66916973      -1.22971190
N        4.43295203      -0.80614314      -1.06244815
C        2.87601160       1.46772703      -0.00932942
C        3.28315660       2.61164123      -0.04906176
H        0.45689560       0.49805199      -0.83672780
H        0.51101093       0.51007610       0.94553557
H        0.56178474      -1.04570651       0.07229432
H        3.82409656      -0.85189501       0.93076730
H        2.66876687      -0.13753163      -2.14683840
H        2.53994750      -1.67721427      -1.24226239
H        4.90135092       0.07374001      -1.29307902
H        4.80964975      -1.52718393      -1.67750951
H        3.62791540       3.62552659      -0.06056443
