17
Properties=species:S:1:pos:R:3 -1657.3404960421824=T 10.785052=T 12.17492=T -9.2396=T -7.0862=T -10.82=T 1.0017=T 0.1273=T 3.2=T 10.46567=T -2.91762=T 8.602582631=T 11.033018196=T 0.145327913=T pbc="F F F"
C        1.13353082       0.05570979      -1.47318157
O        1.43392379       0.98684131      -0.43263672
C        2.81239529       1.21888735      -0.31829594
C        3.50025068       2.20241496      -1.25464788
C        3.24771954       2.56498641       0.18305356
O        4.36895681       2.66124359       1.02064270
C        4.02200034       2.45905926       2.39195144
H        0.04137717      -0.04288195      -1.50568611
H        1.58058911      -0.93424106      -1.26711635
H        1.50050629       0.41237609      -2.45211570
H        3.40989851       0.35531182       0.00340008
H        2.89018707       2.70955105      -2.00261107
H        4.52929086       1.98692724      -1.54370102
H        2.44614534       3.28800926       0.38508521
H        4.95206107       2.53318863       2.96860611
H        3.56827440       1.46512134       2.55081115
H        3.31379291       3.23119492       2.74335213
