15
Properties=species:S:1:pos:R:3 -1649.0300115896734=T 12.776027=T 13.27928=T -8.6132=T -6.5697=T -8.317=T 0.8154=T -0.7439=T 0.632=T 7.83804=T -0.03954=T 4.0587313044=T 11.2016143588=T 0.586092596=T pbc="F F F"
C        0.95442489       0.04976626       0.02484427
C        2.17001311      -0.02525607      -0.00709906
C        3.58463665      -0.04523181      -0.04054092
C        4.37498062      -1.14124479      -0.10514220
C        5.83589575      -0.78712158      -0.06118030
C        5.84007981       0.74055391      -0.31776968
C        4.42072938       1.22506064       0.05810155
H       -0.11458950       0.09936239       0.05202968
H        4.00069014      -2.16492267      -0.13739994
H        6.25814662      -1.04021627       0.92967323
H        6.43421817      -1.34438261      -0.79913166
H        6.01445792       0.92557074      -1.38827853
H        6.62831991       1.26420352       0.23971964
H        4.04778994       2.02059533      -0.60309680
H        4.37146661       1.61807300       1.08857073
