13
Properties=species:S:1:pos:R:3 -1445.466760325885=T 11.965411=T 12.70139=T -9.6255=T -7.5764=T -10.006=T -0.2438=T -1.9792=T -0.91=T 9.56079=T 1.49124=T 3.4266754736=T 10.8659718582=T 0.695155878=T pbc="F F F"
O        1.12474979      -0.71325553       0.14410710
C        2.30154899      -0.38856936       0.06595495
C        2.77983958       1.00005679       0.03747847
C        4.09465399       1.27433643      -0.03348097
C        4.68983474       2.65786583      -0.04596472
C        5.62479990       2.85328497      -1.15156543
C        6.40066689       2.99310788      -2.07342700
H        3.11207067      -1.16186234       0.00914063
H        2.02059772       1.78653006       0.07706439
H        4.80917198       0.44454308      -0.08287675
H        5.22967280       2.81891122       0.90582263
H        3.89202957       3.41625462      -0.08502106
H        7.08106339       3.12456635      -2.89004223
