12
Properties=species:S:1:pos:R:3 -1304.0932309612579=T 9.21618=T 9.79204=T -8.4951=T -6.4421=T -8.59=T 1.3652=T -0.3682=T -0.011=T 8.11305=T 0.59028=T 4.2137633988=T 7.1361506146=T 0.291418019=T pbc="F F F"
C        3.08427389      -1.12605829       0.56406263
O        2.31266727       0.05567078       0.27638208
C        3.02249063       1.19756080       0.15317544
C        2.51650721       2.44219519      -0.11762693
O        3.59190821       3.31321799      -0.15449869
C        4.67135642       2.52971822       0.09704402
N        4.39798314       1.26770181       0.28768755
H        2.35195668      -1.93776107       0.62741329
H        3.62240353      -1.02212926       1.51688999
H        3.80903139      -1.32736525      -0.23747162
H        1.53258198       2.85386873      -0.29404294
H        5.64034964       3.01774034       0.11542518
