17
Properties=species:S:1:pos:R:3 -1608.0079270806002=T 11.225399=T 11.83027=T -8.1058=T -6.2276=T -9.696=T 0.7916=T -0.1974=T 0.662=T 8.92707=T -0.01213=T 4.7714276296=T 8.2662954032=T 0.15761851=T pbc="F F F"
C        2.07373886      -0.63874100       1.18056529
C        2.68376632      -0.19791242      -0.15875353
C        3.54951116       1.04039156      -0.05509336
N        3.26307764       2.23070735      -0.49463408
N        4.73042482       0.93953266       0.65129234
C        5.60786907      -0.21496907       0.61530985
O        5.49439307       2.13272703       0.60752460
H        1.41605649      -1.50712343       1.03630149
H        1.47876784       0.17265057       1.62201942
H        2.84851277      -0.91419152       1.90881309
H        1.88151693       0.03267823      -0.87456296
H        3.25893508      -1.02569174      -0.60401860
H        2.33987735       2.27418652      -0.92938444
H        5.02023706      -1.12444198       0.78202031
H        6.33328672      -0.11919631       1.43270234
H        6.15477525      -0.28990571      -0.34089101
H        4.84100357       2.72046925       0.11298925
