15
Properties=species:S:1:pos:R:3 -1416.663956409766=T 10.527042=T 12.22172=T -11.048=T -9.0681=T -11.053=T 0.7523=T -0.3497=T -0.136=T 10.31316=T 0.49517=T 5.5431412908=T 12.4713053904=T 0.145223631=T pbc="F F F"
C        1.27771487      -0.37827742      -0.10846946
C        2.76783539      -0.11366256       0.11995784
C        3.14479638       1.31275849      -0.28111723
S        4.89862640       1.62263320       0.00004775
O        4.97900930       3.22855192      -0.41369277
O        5.16499354       1.54490770       1.43109354
O        5.69718221       0.88384871      -0.98388182
H        1.02011016      -1.40602046       0.18103833
H        1.00316036      -0.25018358      -1.16599533
H        0.65314361       0.30364240       0.48726320
H        3.37165265      -0.82519105      -0.46314985
H        3.02218103      -0.26775516       1.17889697
H        2.61520780       2.06832541       0.31648100
H        2.97314070       1.50540881      -1.34955378
H        5.52012560       3.25880360      -1.22942839
