15
Properties=species:S:1:pos:R:3 -1561.9185490764164=T 10.088315=T 11.10326=T -9.5571=T -7.439=T -10.982=T -0.7534=T -2.8222=T -1.838=T 10.75628=T 2.12854=T 2.7443805156=T 11.60013016=T 0.200224777=T pbc="F F F"
C        1.06714598      -0.57416083       0.48125892
C        2.27574761       0.00474505      -0.25263903
C        3.06016002      -1.07909998      -1.02919064
C        1.87699692       1.08937529      -1.23056984
O        0.76213990       1.23513132      -1.71223231
C        2.95571075       2.10509517      -1.66544282
O        4.04897419       2.20632757      -1.14589454
H        0.54037289       0.19875320       1.05725257
H        1.38845890      -1.36241408       1.17577730
H        0.34853301      -1.00688047      -0.22821170
H        2.98058847       0.47033503       0.45802550
H        2.41340083      -1.56409093      -1.77492140
H        3.41106106      -1.84860517      -0.32768425
H        3.93906736      -0.66387268      -1.54021863
H        2.60388209       2.77636150      -2.48847912
