15
Properties=species:S:1:pos:R:3 -1480.1771118928102=T 10.395648=T 11.03129=T -8.7378=T -6.7135=T -9.664=T 0.8882=T -0.2771=T 0.833=T 9.05918=T -0.16798=T 5.0319470128=T 12.261719456=T 0.157188082=T pbc="F F F"
C        1.14474069       0.13704610       0.17255812
C        2.61598622      -0.00318657      -0.01841115
N        3.26975553      -1.11042715       0.04845200
C        4.68207444      -0.78090380      -0.23554237
C        4.78211114       0.74731690      -0.07928586
N        3.38998829       1.13326104      -0.38940992
O        2.99670686       2.33397020       0.31150814
H        0.71502297      -0.84969402       0.37207294
H        0.67841457       0.56644572      -0.72604305
H        0.92589913       0.81453220       1.00956742
H        5.35281077      -1.33677958       0.43366489
H        4.91308365      -1.08593160      -1.27041546
H        5.49052863       1.22670912      -0.76659780
H        5.01581470       1.04179240       0.95848702
H        2.85924239       2.96911904      -0.41515491
