11
Properties=species:S:1:pos:R:3 -1269.311185320882=T 10.374484=T 10.68061=T -9.9=T -7.7931=T -9.518=T -0.4953=T -2.1935=T -0.845=T 9.10904=T 1.32918=T 4.0158073512=T 6.2731460616=T 0.234340959=T pbc="F F F"
O        1.21087858      -0.08719379      -0.77975390
C        2.36443305      -0.04449301      -0.04544499
O        2.76279935      -1.01869139       0.54684381
C        3.06799951       1.30158259      -0.01302335
C        2.36515006       2.45393562       0.07292326
C        4.48786356       1.26280134       0.01469267
C        5.70176127       1.20746879       0.01603585
H        1.12254789       0.74953196      -1.27636156
H        1.27466283       2.45541457       0.10051502
H        2.87161494       3.41360221       0.16922884
H        6.77165897       1.15910109       0.02298436
