17
Properties=species:S:1:pos:R:3 -1677.7062752613322=T 10.59092=T 12.07652=T -9.4985=T -7.2663=T -10.956=T 0.9135=T -0.0452=T 2.96=T 10.68139=T -2.66677=T 8.6623810788=T 10.4330127462=T 0.194841425=T pbc="F F F"
C        2.99385950      -1.17446990      -0.51629676
C        2.47918509       0.07238399       0.21062905
C        3.42703726       1.24937243       0.09240097
C        3.40220123       2.17018289      -1.11099731
O        2.47452973       1.87572716      -2.13272702
C        2.92458978       2.67676015       0.22102639
O        3.70800919       3.67362367       0.84223924
H        2.29890419      -2.01812983      -0.39610742
H        3.97324169      -1.48959647      -0.12489852
H        3.10737171      -0.97636945      -1.59139718
H        2.32159034      -0.15363224       1.27914419
H        1.49867412       0.35478389      -0.20134789
H        4.43437195       1.08331552       0.48764898
H        4.37238281       2.55372077      -1.44707450
H        2.17980781       2.72083150      -2.51504318
H        1.83793950       2.79513485       0.32232857
H        3.71380409       3.49199108       1.79909238
