15
Properties=species:S:1:pos:R:3 -1541.4693509917713=T 10.950807=T 11.98028=T -8.9689=T -6.9248=T -10.214=T 0.75=T -0.2907=T 1.505=T 9.43553=T -1.1232=T 5.350863802=T 11.3338578264=T 0.380660635=T pbc="F F F"
C        0.98284917       0.00085778       0.07993418
N        2.43200949       0.01785765       0.07397379
C        3.12034719       1.03937551       0.89002181
C        4.20424181      -0.02281490       1.25332921
C        3.14439002      -1.06627014       0.78128717
C        5.40930230       0.03266667       0.44446183
N        6.38752900       0.07662705      -0.19090727
H        0.62125034      -0.86276217      -0.49641897
H        0.60072139       0.91045602      -0.40521466
H        0.55486315      -0.05690582       1.10565730
H        2.55541163       1.33434315       1.79810839
H        3.44735754       1.93625695       0.34532215
H        4.48174171      -0.07435462       2.31356641
H        3.49105012      -1.89476634       0.14769108
H        2.58737512      -1.46578677       1.65359758
