13
Properties=species:S:1:pos:R:3 -1417.7129132975037=T 10.815933=T 10.649=T -8.2919=T -6.2771=T -8.436=T 0.7365=T -0.8346=T 0.104=T 7.9803=T 0.41225=T 4.9016377268=T 0.630076399=T pbc="F F F"
C        0.91356851       0.07975241       0.00075222
C        2.25721909       0.01287846       0.06564846
O        2.96708628       1.14233851       0.48060518
C        4.28666663       1.16196354      -0.02585683
O        5.06257890       0.02871116       0.38989781
C        4.40270042      -1.13388932       0.10155374
C        3.07374273      -1.16955038      -0.14276584
H        0.39220090       1.01192965       0.20861109
H        0.33407814      -0.81195520      -0.22710666
H        4.77770810       2.04976271       0.38518916
H        4.26861729       1.16624867      -1.13122084
H        5.06089663      -2.00253266       0.10140364
H        2.59348638      -2.10848755      -0.41125112
