19
Properties=species:S:1:pos:R:3 -1801.6298661201677=T 12.263611=T 13.31876=T -8.3345=T -6.2966=T -9.593=T 0.8949=T -0.0259=T 3.399=T 8.83984=T -3.08379=T 7.576908446=T 12.7237656836=T 0.164136814=T pbc="F F F"
C        2.95757951      -0.99397286      -0.61907319
N        2.35592824       0.16152045       0.04305043
C        1.72741518      -0.21545157       1.30625839
C        3.30130139       1.23295872       0.22137025
C        3.58521096       2.13716084      -0.96152755
C        2.79928063       2.66696070       0.20688154
N        3.34827212       3.73356085       1.01651140
H        3.40157355      -0.68065626      -1.57398441
H        2.18253547      -1.74647689      -0.82721224
H        3.75258979      -1.47825577      -0.00898381
H        0.95492114      -0.97676458       1.12336149
H        1.24523178       0.66418613       1.75498573
H        2.45093540      -0.63069456       2.04378914
H        4.15797424       1.03528278       0.89288676
H        3.04402101       1.93633504      -1.88659238
H        4.60815381       2.49591657      -1.09419830
H        1.72413329       2.76778026       0.03360639
H        4.37022994       3.70641010       0.99891888
H        3.06768254       3.62043007       1.99473147
