17
Properties=species:S:1:pos:R:3 -1657.4481022388366=T 12.209414=T 12.62866=T -8.1094=T -6.1976=T -8.861=T 1.1349=T -0.1118=T 0.756=T 8.22377=T -0.18908=T 4.735521284=T 5.2468643452=T 0.3192798=T pbc="F F F"
C        0.89322316       0.01039900       0.15854789
C        2.38672211       0.02695071      -0.11825106
C        3.25355121       1.08403173       0.61974758
N        4.22449690       0.00059795       0.92337664
C        3.26599783      -1.06203972       0.56309620
N        4.97739743      -0.10657653       2.03567163
C        5.32635998       0.96981594       2.65964496
H        0.41521968      -0.86754218      -0.30154644
H        0.40260823       0.90652917      -0.24990280
H        0.69000970      -0.02315415       1.23956443
H        2.57914990       0.05942958      -1.20050869
H        2.77505389       1.47340457       1.54013679
H        3.65615528       1.92346367       0.03328850
H        3.68334538      -1.85947406      -0.06928131
H        2.77965299      -1.50636482       1.44933237
H        5.97427447       0.85302631       3.52849773
H        5.02913186       1.98162286       2.34966558
