17
Properties=species:S:1:pos:R:3 -1667.9298463238965=T 12.885415=T 13.16211=T -8.6595=T -6.6316=T -9.157=T 1.2103=T -0.3347=T 0.58=T 8.74355=T -0.03292=T 4.9302041012=T 5.5814653634=T 0.284309895=T pbc="F F F"
C        3.25242020      -1.55342337      -0.99847948
C        2.89028122      -0.61683746       0.12222837
C        2.17323631      -1.00929002       1.18632027
C        3.38656167       0.81180724      -0.01654207
C        4.88322209       0.92064291       0.07853878
N        5.58259402       1.35442497      -0.90840470
N        6.93809195       1.51261190      -0.72441116
H        2.82634501      -1.20012786      -1.95186721
H        2.88724974      -2.57113770      -0.81005843
H        4.34320309      -1.59208651      -1.14555672
H        1.81896829      -2.03740350       1.28630294
H        1.91173172      -0.31293617       1.98594978
H        2.92482850       1.42980195       0.77160646
H        3.08342989       1.22785361      -0.99101835
H        5.35548614       0.61097970       1.03081208
H        7.42248161       1.42628959      -1.61548152
H        7.35451856       0.90826070      -0.00445902
