14
Properties=species:S:1:pos:R:3 -1378.434997978491=T 9.314486=T 9.94398=T -9.0436=T -6.9159=T -9.43=T 0.9239=T -0.0532=T 1.101=T 8.88885=T -0.55572=T 6.2847635498=T 0.343613315=T pbc="F F F"
C        1.96759827       0.17896286      -0.87489119
O        3.28225624       0.58647379      -0.49037235
C        3.42584568       1.87972416      -0.05044271
C        2.43816164       2.77614918       0.11093794
C        4.87981486       2.14595365       0.23946342
O        5.72214682       1.94420808      -0.90069642
H        2.06048711      -0.85357218      -1.22906333
H        1.57971582       0.81984547      -1.68311864
H        1.27773840       0.21585525      -0.01616092
H        1.38927903       2.55435909      -0.07462626
H        2.68766056       3.78016712       0.44728716
H        5.20015211       1.49912037       1.07959850
H        5.00750765       3.19225976       0.54370262
H        5.52295581       1.05177339      -1.23714780
