17
Properties=species:S:1:pos:R:3 -1679.415578488846=T 10.390743=T 11.69122=T -9.5211=T -7.3165=T -11.326=T 0.8867=T -0.0159=T 2.719=T 10.8572=T -2.42599=T 9.0716092704=T 10.4366207388=T 0.143706438=T pbc="F F F"
C        2.25699309      -0.56990763      -1.48480965
C        2.59563646       0.08849687      -0.15734891
O        3.34589413      -0.84687183       0.62509820
C        3.41207804       1.36427517      -0.33076044
C        2.65369190       2.66704322      -0.65962896
C        3.13095797       3.14780201       0.72229834
O        3.82296850       1.88697790       0.97945490
H        1.66622199       0.10485336      -2.12047028
H        1.67120997      -1.48247079      -1.31339353
H        3.17710685      -0.84694937      -2.01928044
H        1.65868968       0.35571928       0.37601515
H        3.65318083      -0.35097867       1.40849919
H        4.30126585       1.15747802      -0.95314606
H        1.56678429       2.54692802      -0.76228281
H        3.04069517       3.23245956      -1.51507811
H        3.83823967       3.99250382       0.71463324
H        2.34364560       3.33821106       1.46874017
