17
Properties=species:S:1:pos:R:3 -1724.1497050083262=T 11.541822=T 12.45826=T -9.4061=T -7.2332=T -9.258=T 1.472=T -0.0261=T 1.219=T 8.63068=T -0.58=T 6.3166899448=T 0.443746776=T pbc="F F F"
C        0.96212940       0.30962794       0.83937335
C        2.31667966       0.00725183       0.25146893
C        2.63979359      -1.22837442      -0.16679775
C        3.31533903       1.12940951       0.14435730
C        2.88255090       2.48552030      -0.47565237
O        3.31336435       3.22730911       0.69973272
C        3.62682217       1.99023771       1.39874755
H        1.04294479       0.71162458       1.86144813
H        0.33980460      -0.59316886       0.87793901
H        0.42471769       1.06768349       0.24827291
H        1.93453071      -2.05862908      -0.09411279
H        3.62078065      -1.44578318      -0.59422899
H        4.23586900       0.75109574      -0.32088998
H        1.79976157       2.59925214      -0.65323352
H        3.43300240       2.79289738      -1.37911372
H        4.67280918       1.96708356       1.74383159
H        2.95623030       1.82809225       2.25964762
