18
Properties=species:S:1:pos:R:3 -1748.9754019724899=T 11.953002=T 12.96349=T -9.2688=T -7.0276=T -9.084=T 0.8122=T -0.1709=T 1.32=T 8.57263=T -0.69235=T 6.2460675192=T 0.391060783=T pbc="F F F"
N        3.78523324      -1.12528974      -0.23156338
C        2.61569905      -0.24672582      -0.14309892
C        2.97478018       1.20902219      -0.02361877
C        4.21700793       1.71600807      -0.03646559
C        4.54190792       3.17940470       0.04843645
C        5.03892426       3.72043635      -1.30230344
O        4.05144519       3.61510979      -2.32744933
H        3.48438344      -2.08350035      -0.41591573
H        4.27271227      -1.14334957       0.66822531
H        1.92526739      -0.49312077       0.69260958
H        2.01780581      -0.38544606      -1.06181298
H        2.12294646       1.88650229       0.11156622
H        5.05802980       1.02898525      -0.18598875
H        5.33165013       3.35379902       0.79960695
H        3.65396973       3.75387001       0.35624724
H        5.96890267       3.19359657      -1.59398352
H        5.27423415       4.79153126      -1.21671494
H        3.71752039       2.69790682      -2.29370641
