14
Properties=species:S:1:pos:R:3 -1428.246791645199=T 10.613298=T 11.23046=T -9.1524=T -7.2844=T -9.771=T 0.6682=T -0.4589=T 0.638=T 8.9265=T -0.10738=T 4.9013029646=T 5.8918395172=T 0.157096638=T pbc="F F F"
C        1.01539832       0.12285215      -0.33607132
N        2.37375201      -0.00286168       0.17444931
C        2.94332012      -1.33990096       0.22175216
C        3.11504731      -1.95845971      -1.10736574
N        3.21486511      -2.42138067      -2.17320878
C        3.24104062       1.08475990       0.11076998
N        3.00741162       2.29779587      -0.23096863
H        0.55322654       1.03108351       0.07311672
H        0.42325232      -0.73742848       0.00102640
H        0.97888746       0.16549587      -1.43844585
H        2.30564700      -2.00358529       0.82836551
H        3.92504701      -1.29328549       0.71637164
H        4.25380467       0.82751768       0.45546965
H        2.04388990       2.43080731      -0.56668105
