13
Properties=species:S:1:pos:R:3 -1332.9193601071845=T 10.813755=T 10.49651=T -8.5382=T -6.4392=T -8.317=T 0.8297=T -0.75=T 0.345=T 7.87155=T 0.19476=T 5.0823845176=T 0.804402695=T pbc="F F F"
C        0.84975702       0.01688772      -0.09582981
C        2.33934633       0.00694995      -0.21797127
C        3.16984608       0.90863464       0.34521664
C        4.61480038       0.88491165       0.21695159
C        5.44612984       1.78396637       0.77827410
H        0.48078928      -0.91705569       0.35900587
H        0.36916606       0.08797200      -1.08541311
H        0.49836017       0.85853741       0.51688067
H        2.77816351      -0.80209767      -0.81483699
H        2.74238251       1.72247720       0.94449566
H        5.03697855       0.07005548      -0.38266728
H        5.06285638       2.60977258       1.38252398
H        6.52664390       1.72046836       0.65065997
