15
Properties=species:S:1:pos:R:3 -1497.1363872605202=T 11.255751=T 11.61295=T -9.3781=T -7.2173=T -9.279=T 1.2228=T -0.4485=T 0.952=T 8.87793=T -0.61326=T 6.2600035456=T 0.474397465=T pbc="F F F"
N        1.05962234      -0.08889987       0.21793072
C        2.42396047       0.14009725      -0.30410940
C        2.56204762      -0.60851351      -1.60886626
C        3.48356404      -1.54704487      -1.84801116
C        2.59991433       1.62284584      -0.53258504
C        3.55709437       2.36680290       0.03090724
H        0.95088420       0.39607958       1.11210256
H        0.92592694      -1.08750033       0.39533035
H        3.22797430      -0.20322880       0.37903512
H        1.82593490      -0.34322202      -2.37542241
H        4.21833191      -1.82973909      -1.08957357
H        3.53995002      -2.06125066      -2.80851131
H        1.86102597       2.07916587      -1.20021058
H        4.29577058       1.92781450       0.70665812
H        3.64025800       3.43646320      -0.16679437
