15
Properties=species:S:1:pos:R:3 -1620.639553918961=T 13.007561=T 15.71683=T -9.3148=T -7.0065=T -8.929=T 0.7899=T -0.0402=T 2.035=T 8.63376=T -1.72513=T 4.128423835=T 10.064625543=T 1.230693737=T pbc="F F F"
C        0.89788625      -0.11471267      -0.00203156
C        2.35179344      -0.05211537      -0.00134215
C        3.56480156       0.01021014      -0.00029762
C        5.02941411       0.06896513       0.00228268
C        5.57293373       1.43031798       0.00212960
C        6.03619916       2.55311149       0.00170554
C        6.58140869       3.90237607      -0.00000513
H        0.46018500       0.89475348       0.00886330
H        0.52148156      -0.65216555       0.88121124
H        0.52121744      -0.63319764      -0.89642106
H        5.41728383      -0.47766815      -0.87637986
H        5.41385374      -0.47635959       0.88325095
H        5.80976778       4.63910973      -0.26927066
H        7.40344883       3.99896811      -0.72492891
H        6.97382487       4.17552684       0.99098363
