16
Properties=species:S:1:pos:R:3 -1600.9552401076787=T 10.207544=T 11.34055=T -10.0819=T -7.992=T -11.392=T 0.8833=T -0.0993=T 0.356=T 10.34482=T 0.18578=T 4.8705916324=T 13.0941118656=T 0.140903588=T pbc="F F F"
C        0.21977757       0.40959371       0.57984817
C        1.48352519      -0.36853549       0.20637564
C        2.68134044       0.55786605       0.04322559
O        3.86473007      -0.16174943      -0.39233658
C        4.65320071      -0.65271064       0.61682956
N        5.75568721      -1.27204713       0.07798657
O        4.43560352      -0.52341455       1.81130140
H       -0.63964065      -0.26558953       0.69038524
H       -0.03842514       1.15290845      -0.19007094
H        0.34692575       0.94482421       1.53275352
H        1.32743800      -0.92059963      -0.73434626
H        1.71548645      -1.10964448       0.98663364
H        2.90894697       1.07567449       0.98594145
H        2.50399942       1.30048349      -0.74835913
H        5.73034595      -1.53181153      -0.90235989
H        6.27813854      -1.86634798       0.71088201
