16
Properties=species:S:1:pos:R:3 -1603.5742823753094=T 10.752209=T 11.80679=T -9.5483=T -7.3984=T -10.744=T 0.9493=T -0.9813=T 0.111=T 9.92443=T 0.53794=T 3.6889926538=T 12.5802146928=T 0.225287276=T pbc="F F F"
C        1.86671727      -0.18894413       0.56021343
C        2.59948142      -0.23658855      -0.78758472
C        1.76032979      -1.05098589      -1.76475164
O        1.92370790      -2.23431990      -1.99101586
N        2.74442010       1.11913772      -1.32800447
C        3.90821972       1.86891173      -0.84089527
C        3.88977564       1.32331899      -2.22884396
H        2.44479587       0.41027233       1.27756803
H        1.74379226      -1.20086513       0.96796289
H        0.87715431       0.27601868       0.44645071
H        3.57175796      -0.75754371      -0.66433452
H        0.94038124      -0.46446776      -2.25468785
H        4.57152725       1.37519147      -0.12281808
H        3.74127806       2.93334738      -0.66346786
H        3.70495523       1.98271658      -3.07881027
H        4.53756597       0.46505019      -2.43397057
