21
Properties=species:S:1:pos:R:3 -2017.5437452917622=T 12.499873=T 14.55296=T -10.1295=T -7.7882=T -12.048=T 0.9327=T -0.0408=T 2.873=T 11.57142=T -2.66257=T 9.9143793082=T 10.950133555=T 0.160311209=T pbc="F F F"
C        0.92868340      -0.05923153      -0.00231811
C        2.45757147      -0.01008371       0.02213024
C        3.01527171       1.41596651      -0.00893778
C        4.54534795       1.47867052       0.00999001
C        5.09670164       2.90783316      -0.01790194
C        6.62280633       2.95668313      -0.01054295
O        7.15198481       4.28832680       0.02453872
H        0.55729671      -1.09382012       0.02110677
H        0.53006838       0.41794828      -0.91094692
H        0.49997482       0.46898184       0.86329504
H        2.85907915      -0.57519276      -0.83702632
H        2.82943885      -0.52506014       0.92493956
H        2.61655283       1.98116822       0.85264719
H        2.64016510       1.93299858      -0.91071905
H        4.94277114       0.91334299      -0.85215208
H        4.91892254       0.96126758       0.91182223
H        4.72165460       3.47695836       0.84901664
H        4.72266198       3.42596751      -0.92045878
H        7.02328855       2.39743791      -0.87867365
H        7.01290502       2.46930574       0.89664619
H        6.84961303       4.74615112      -0.77942500
