16
Properties=species:S:1:pos:R:3 -1632.8737655158038=T 11.498886=T 12.11752=T -9.3954=T -7.3644=T -9.765=T 1.2978=T -0.3099=T 0.302=T 9.87271=T 0.29625=T 4.3212592608=T 6.0772109858=T 0.309452239=T pbc="F F F"
C        0.86114837       0.02539991       0.15564546
C        2.32256759       0.15664916      -0.27775625
N        2.53852773      -0.41974213      -1.61384611
C        3.08070915      -1.65714522      -1.81625824
O        3.47224808      -2.41439250      -0.93398946
C        2.88276090       1.55803357      -0.25796614
C        2.22850941       2.66940297       0.09776945
H        0.72669373       0.38346444       1.18577690
H        0.55969713      -1.02911757       0.11773879
H        0.19244625       0.60160327      -0.50101081
H        2.94261299      -0.47324272       0.38375377
H        2.22822620       0.10928884      -2.42576157
H        3.13644937      -1.91075659      -2.90029060
H        3.92959944       1.62787453      -0.57290957
H        1.18629782       2.65401310       0.42182452
H        2.72555583       3.64000695       0.08525986
