13
Properties=species:S:1:pos:R:3 -1346.820965718871=T 12.24896=T 12.61162=T -8.9846=T -7.0416=T -8.516=T 0.6038=T -0.9564=T -0.084=T 8.03886=T 0.77684=T 4.187565157=T 10.6558899798=T 0.192991109=T pbc="F F F"
N        2.09314928      -0.51676162      -1.33575959
C        2.48071040      -0.11517750       0.02993127
C        3.00544008       1.29276081       0.04690644
C        2.31585542       2.47795285      -0.07597233
N        3.05812910       3.63281676      -0.06495456
C        4.33198896       3.35606436       0.06031982
S        4.70580082       1.65459066       0.17782254
H        1.78050767      -1.49131142      -1.32828401
H        2.91210961      -0.47730412      -1.94872815
H        3.22382469      -0.78110261       0.51022698
H        1.57553792      -0.15523431       0.65719230
H        1.23290504       2.53857948      -0.18414159
H        5.12547101       4.10033666       0.10255088
