13
Properties=species:S:1:pos:R:3 -1398.7567610035303=T 12.084138=T 12.82385=T -8.1336=T -6.2326=T -8.403=T 0.7357=T -0.1753=T 0.58=T 7.83077=T 0.07221=T 3.9484333588=T 11.4648490354=T 0.475518036=T pbc="F F F"
C        0.92629226       0.02322229      -0.00858102
C        2.42185772       0.00563710      -0.00093730
C        3.28086343       1.09430015       0.00511890
N        4.57972067       0.63139905       0.01072884
C        4.59186713      -0.74506224       0.00854797
C        3.26757768      -1.14476659       0.00132070
Cl       2.71766099      -2.79656974      -0.00390060
H        0.54600419       1.05305749      -0.00173318
H        0.51527135      -0.49752821       0.86943341
H        0.52420449      -0.48235397      -0.89957189
H        3.06084869       2.15691454       0.00585402
H        5.40684434       1.21587189       0.01592347
H        5.50872706      -1.32198176       0.01227669
