15
Properties=species:S:1:pos:R:3 -1443.0289811702423=T 9.376077=T 10.31323=T -8.916=T -6.7087=T -10.286=T 1.0378=T 0.0082=T 3.127=T 9.59913=T -2.84322=T 8.3947325006=T 13.7849742562=T 0.108549699=T pbc="F F F"
O        2.24659003      -0.43212993      -1.35326864
C        2.34062352       0.06340250      -0.01014285
C        3.12861428       1.35998674      -0.04710366
C        2.44056501       2.64916130      -0.56377966
C        3.06898671       3.34980410       0.66358714
N        3.27963545       2.01029036       1.28553186
H        1.69503780      -1.23134097      -1.34005735
H        2.86072415      -0.65870525       0.64912625
H        1.34322839       0.26195919       0.42326886
H        4.08652017       1.18317082      -0.57355345
H        1.34595880       2.58147492      -0.49951783
H        2.72823149       3.00884546      -1.55760603
H        4.00433774       3.87664839       0.40185415
H        2.43199966       4.02705471       1.25286401
H        4.19359679       1.88002766       1.72509720
