12
Properties=species:S:1:pos:R:3 -1290.525881558567=T 9.455191=T 10.12932=T -9.9791=T -7.8571=T -11.093=T 0.3826=T -1.5544=T -0.439=T 10.27255=T 1.0207=T 3.6409356802=T 6.5838549776=T 0.138022066=T pbc="F F F"
O        1.95483301      -0.90034353       0.27671841
C        1.92476146       0.20436788      -0.22764665
C        2.92259232       1.27860644       0.06754506
C        3.51399660       2.04683732      -1.10683272
N        2.51394500       2.63981711      -0.24690898
C        2.73374291       3.71975564       0.61563548
O        2.57558896       3.68919348       1.82047310
H        1.14481821       0.49949501      -0.97637202
H        3.55566899       1.12211679       0.94503438
H        3.19381174       1.80402552      -2.12347206
H        4.55453226       2.36216649      -0.99370347
H        3.00011854       4.64004185       0.04906947
