12
Properties=species:S:1:pos:R:3 -1327.085243306416=T 9.348053=T 9.58236=T -8.8208=T -6.7199=T -9.163=T 1.2764=T -0.4502=T 0.124=T 8.72614=T 0.39107=T 4.8125661844=T 11.2215761048=T 0.171220446=T pbc="F F F"
O        0.91822695      -0.01693935       0.00386170
C        2.13375339      -0.02371617      -0.00204725
N        2.87821427      -1.19337876       0.01202686
C        4.27404939      -1.22818247       0.00630930
C        4.98368546      -0.09420082      -0.01544586
C        4.29084909       1.22775247      -0.03453766
O        2.83002857       1.14709860      -0.02233987
H        2.32845252      -2.04531539       0.02773340
H        4.72107694      -2.22089598       0.02058259
H        6.07156684      -0.11160477      -0.02026274
H        4.56389882       1.84111485       0.84122248
H        4.55150777       1.80908780      -0.93563295
