11
Properties=species:S:1:pos:R:3 -1129.1054106550328=T 9.257186=T 9.09709=T -8.6096=T -6.5058=T -9.14=T 1.8132=T 0.0806=T 1.057=T 8.73986=T -0.7498=T 6.0191235448=T 0.592018398=T pbc="F F F"
C        1.21506709      -0.47026286      -0.42042682
C        2.50035520      -0.33605953      -0.08397930
O        3.14720728       0.87419642      -0.16957111
C        4.46890981       0.91575784       0.20704023
C        5.17995131       2.04456770       0.14942089
H        0.74314625      -1.44606216      -0.33847095
H        0.62627290       0.37442641      -0.77530482
H        3.11642573      -1.16636625       0.27546607
H        4.88226118      -0.03677243       0.55342721
H        4.74185249       2.97853555      -0.19970064
H        6.22211076       2.03276930       0.45827923
