13
Properties=species:S:1:pos:R:3 -1425.6005748527634=T 10.090642=T 11.31573=T -12.1041=T -9.7403=T -11.973=T 0.9954=T -0.6633=T 0.507=T 11.57598=T -0.31568=T 5.3002899126=T 11.1925385836=T 0.388648657=T pbc="F F F"
C        0.95286568       0.00305469      -0.01351718
C        2.50416859      -0.02157748       0.01311221
C        3.03156803      -0.73313081       1.28722113
C        3.00012181      -0.73319297      -1.18221309
N        3.36504878      -1.33933024      -2.10839396
C        3.01303955       1.36479737      -0.01554193
N        3.38814375       2.46800968       0.00922804
H        0.58468212       0.50743187      -0.91418414
H        0.58458988       0.53642560       0.87141921
H        0.57450334      -1.02647520       0.00024226
H        2.66792509      -0.20132098       2.17501101
H        4.12735049      -0.74731941       1.30260381
H        2.65993290      -1.76504212       1.30531264
