17
Properties=species:S:1:pos:R:3 -1686.7691752547735=T 10.463516=T 11.64738=T -9.7397=T -7.5834=T -11.594=T 0.7549=T -0.2738=T 2.504=T 11.26995=T -2.26071=T 9.082532437=T 9.9136353922=T 0.118138634=T pbc="F F F"
C        1.00610165      -0.04258926       0.47055592
C        2.38482042      -0.01854897      -0.17256843
O        2.16077842      -0.03218677      -1.58262082
C        3.32007822       1.09171630       0.39991713
C        3.93419392       0.02303072       1.34238985
O        5.32096117       0.05327189       1.64051929
C        3.36393283      -1.08223119       0.41451300
H        1.07775487      -0.03324925       1.56660366
H        0.46400883      -0.94840455       0.16448036
H        0.42637671       0.83484964       0.15159190
H        3.02812436      -0.01834537      -2.02312304
H        2.86395996       1.99066189       0.83721205
H        4.05849083       1.40027545      -0.35932769
H        3.43394846       0.01953761       2.32124287
H        5.80717341       0.06419926       0.79644463
H        4.11452790      -1.37212838      -0.34012316
H        2.94345804      -1.99227903       0.86452248
