18
Properties=species:S:1:pos:R:3 -1737.1768348576813=T 11.982245=T 13.02945=T -9.1841=T -6.9033=T -9.223=T 1.0516=T -0.057=T 1.447=T 8.6194=T -0.8096=T 6.4633529842=T 0.419275715=T pbc="F F F"
C        1.75444540       1.92837161       1.33949864
O        3.17178655       1.94008372       1.26680272
C        3.64421050       1.18931277       0.14229919
C        5.14660689       1.25488003       0.06565564
C        5.88904495       0.13931815       0.07166887
C        5.73191659       2.64266182      -0.05395921
N        7.19950496       2.65527110      -0.02133936
H        1.47019087       2.52219632       2.21742426
H        1.36115646       0.90012685       1.45674344
H        1.29591305       2.37524810       0.43597010
H        3.19991390       1.61112066      -0.78646875
H        3.31296066       0.13547447       0.21894255
H        5.42479304      -0.84334945       0.17204946
H        6.97160733       0.18765220      -0.04951915
H        5.25315636       3.27174926       0.72163337
H        5.41018249       3.06639357      -1.02332106
H        7.51950896       2.42339844       0.92341079
H        7.53249106       3.60321038      -0.20757150
