14
Properties=species:S:1:pos:R:3 -1375.6238523981426=T 10.099094=T 10.70902=T -9.6704=T -7.4187=T -10.945=T 1.1366=T -0.7793=T 0.158=T 10.51975=T 0.36312=T 5.3800253092=T 6.5890251938=T 0.422831453=T pbc="F F F"
C        1.38842177       2.41323674       0.58067052
N        2.58844344       2.40548119       0.13330898
O        3.17464791       1.12805214       0.27224154
C        4.53406852       1.19142713      -0.16240352
C        5.59491513       1.59892543       0.87799125
O        6.29574528       0.33065082       0.69949186
C        5.21261887      -0.18308360      -0.12950883
H        0.85652570       3.36133206       0.50043891
H        0.90329211       1.53385544       1.01945060
H        4.59052199       1.73179060      -1.11665434
H        5.18393719       1.70719160       1.89573881
H        6.23529152       2.45893877       0.63095944
H        5.57858685      -0.58335528      -1.08676972
H        4.61329371      -0.94585304       0.39569452
