14
Properties=species:S:1:pos:R:3 -1376.0932638441304=T 8.812968=T 9.89866=T -9.4863=T -7.2532=T -11.115=T 0.9545=T -0.0747=T 2.938=T 10.76526=T -2.64152=T 8.7487125306=T 11.2177077416=T 0.239498474=T pbc="F F F"
O        2.90775913      -0.97648466      -0.72736122
C        2.35432726       0.05989866       0.10270580
C        3.30345121       1.22342179       0.12272618
C        3.35550243       2.19672311      -1.05071317
C        2.78127262       2.63346824       0.26517381
O        3.40720452       3.58762397       1.09466776
H        2.31746427      -1.74724538      -0.67216331
H        2.19645988      -0.30994429       1.13340877
H        1.37292159       0.39117785      -0.28982245
H        4.26277278       1.02650178       0.60932155
H        2.68271572       2.03308931      -1.89427136
H        4.33928296       2.57989982      -1.33009323
H        1.69804167       2.75994604       0.32633267
H        4.33976397       3.65955378       0.82674820
