22
Properties=species:S:1:pos:R:3 -2080.3955792822376=T 13.329403=T 15.33093=T -8.5241=T -6.4419=T -10.033=T 0.9726=T 0.0516=T 3.226=T 9.27203=T -3.07769=T 8.120215098=T 11.3501247896=T 0.257726804=T pbc="F F F"
C        0.69021679       1.06900093      -1.20011200
C        2.01889005       0.99505630      -0.44643159
C        2.83388883       2.28200315      -0.55989736
N        4.07727541       2.20466572       0.20734175
C        4.90528223       3.40423417       0.08107538
C        6.20548330       3.27973508       0.87334315
C        7.07365279       4.53564843       0.78531796
H        0.12387973       0.13164600      -1.10751797
H        0.84705999       1.25902002      -2.27311245
H        0.05645298       1.88010953      -0.80939625
H        2.61766103       0.15235561      -0.83619764
H        1.84423921       0.78346324       0.62058770
H        2.24381656       3.12433683      -0.15544464
H        3.00675851       2.51565052      -1.63661442
H        4.61668367       1.39636446      -0.12037969
H        4.32031131       4.25626679       0.47226126
H        5.14134524       3.65407116      -0.97992892
H        6.77538956       2.41045359       0.49908762
H        5.95619254       3.05740261       1.92318374
H        7.35398386       4.75809341      -0.25582766
H        8.00186412       4.42279768       1.36294058
H        6.54170230       5.41515479       1.17999147
