20
Properties=species:S:1:pos:R:3 -1891.3196840226356=T 11.855786=T 13.13361=T -9.1723=T -6.9908=T -10.556=T 0.8772=T -0.1038=T 3.04=T 9.87771=T -2.80205=T 8.5595966848=T 10.5274280852=T 0.115983042=T pbc="F F F"
C        1.29997926      -0.77168713      -0.07878320
C        2.78271542      -0.68072883      -0.46674029
N        3.05568861      -0.98361502      -1.88591881
C        3.35047141       0.70520503      -0.11998312
C        4.86122143       0.85877440      -0.33779830
C        5.72732479       0.08483825       0.65526375
O        5.50326558       0.45001285       2.02738542
H        1.15349659      -0.59601817       0.99846885
H        0.88887550      -1.76404751      -0.31793459
H        0.70861667      -0.01959242      -0.62677768
H        3.33258649      -1.43800452       0.11973525
H        2.49713425      -0.35633229      -2.47526846
H        2.73191399      -1.92974004      -2.10345434
H        3.10862756       0.93189869       0.93059212
H        2.81827423       1.45664833      -0.73152860
H        5.13045798       1.92890794      -0.28034369
H        5.11886127       0.52085410      -1.35480020
H        6.79382985       0.20768775       0.38949553
H        5.50763495      -0.99238059       0.60902277
H        5.74153416       1.38931919       2.12161759
