17
Properties=species:S:1:pos:R:3 -1634.4862022001237=T 10.762186=T 11.84938=T -8.7187=T -6.7258=T -10.306=T 0.9941=T 0.1013=T 3.209=T 9.63849=T -2.92067=T 8.3274700956=T 11.312420647=T 0.331837806=T pbc="F F F"
C        0.98274748       0.05158157      -0.04487445
C        2.49005183      -0.02579440      -0.02176489
C        3.32165224      -0.78032606      -1.01950171
C        2.76475381      -1.56523040      -2.18240586
N        3.24098413       0.68622025      -1.06509723
C        4.42780583       1.41215021      -0.62463536
H        0.63773879       0.98876910       0.41704734
H        0.53883307      -0.78420359       0.51699451
H        0.59559143       0.02526963      -1.07107360
H        2.93013763       0.01730271       0.98537924
H        4.25665121      -1.18636164      -0.60614439
H        1.83899422      -1.11640815      -2.56346006
H        2.55305672      -2.60424016      -1.88779628
H        3.48789219      -1.59115968      -3.01138434
H        4.13540977       2.41612419      -0.28266283
H        5.11981625       1.52822981      -1.47191952
H        4.97005340       0.90697663       0.20157943
