16
Properties=species:S:1:pos:R:3 -1636.463447181703=T 11.984247=T 13.13241=T -8.7918=T -6.6907=T -9.671=T 0.8788=T -0.0721=T 2.25=T 9.30483=T -1.82592=T 4.3410226292=T 10.408562707=T 0.459023577=T pbc="F F F"
C        0.96608387       0.04241421       0.09359796
C        2.47578771      -0.02452128       0.02619596
N        3.24001966       1.04451509       0.75767748
C        4.17292869      -0.00015131       1.29172342
C        3.21250059      -1.14227711       0.84080699
C        3.74207920      -2.29684592       0.14693168
C        4.20065777      -3.24070533      -0.46646358
H        0.51631021      -0.80878462      -0.43826121
H        0.59806151       0.96673792      -0.37602656
H        0.61218382       0.02027455       1.13669928
H        2.81012781      -0.04126500      -1.02489987
H        2.65543197       1.39294198       1.52484901
H        5.11864588      -0.00339754       0.72942953
H        4.39252404       0.05926145       2.36640794
H        2.57820712      -1.46336144       1.68444298
H        4.60225015      -4.07807565      -0.99939101
