18
Properties=species:S:1:pos:R:3 -1742.4360791106255=T 11.341493=T 12.40072=T -8.5951=T -6.5818=T -10.01=T 0.9365=T 0.0064=T 2.958=T 9.20314=T -2.68789=T 7.8590881834=T 12.1025710264=T 0.095559683=T pbc="F F F"
C        0.96438781      -0.08471131       0.01314647
C        2.47354344       0.03562207       0.06657067
C        3.16299103       1.10968031       0.96806541
O        2.42482127       1.52993478       2.10613600
C        4.21739142       0.00969378       1.24205888
N        3.20641148      -1.00042539       0.84761043
C        3.66093906      -2.19051784       0.15486154
H        0.66769310      -1.01783612      -0.48795707
H        0.52871638       0.75299174      -0.55038471
H        0.52771192      -0.08406455       1.02159670
H        2.88970231       0.12246827      -0.96285506
H        3.50503831       2.02511344       0.47074125
H        2.15305381       0.72250707       2.58126846
H        5.06883087       0.07428717       0.53173875
H        4.60223396      -0.07857599       2.27054301
H        2.79653076      -2.78536100      -0.17465377
H        4.25557230      -2.81628538       0.83664390
H        4.28498079      -1.95541107      -0.73675086
