20
Properties=species:S:1:pos:R:3 -1942.620703565279=T 13.217733=T 14.51636=T -8.9425=T -6.6841=T -9.01=T 0.9695=T 0.0139=T 1.431=T 8.49994=T -0.7964=T 6.2770268234=T 0.405644392=T pbc="F F F"
C        0.51146910       0.63461146      -0.74685424
C        2.00702788       0.69242141      -0.82450363
C        2.80980676       1.25033067       0.09272054
C        4.31053182       1.29483812       0.03238428
C        4.90228144       2.71354015       0.11836587
C        4.55704706       3.59413093      -1.08140069
N        5.22742263       4.90115377      -0.97174995
H        0.04477855       1.13782312      -1.60939528
H        0.13633465       1.11015785       0.17044169
H        0.15121065      -0.40705647      -0.76294529
H        2.46735999       0.23297387      -1.70879958
H        2.35105311       1.71298758       0.97802343
H        4.65850463       0.80183918      -0.89151795
H        4.71907309       0.70430672       0.87164885
H        5.99876701       2.65511735       0.20554929
H        4.54229278       3.20110658       1.04335386
H        3.45530695       3.65723060      -1.18064610
H        4.92715638       3.10629483      -1.99974144
H        4.84940849       5.41246333      -0.16870589
H        5.01081704       5.47172893      -1.79258779
