19
Properties=species:S:1:pos:R:3 -1944.461703076118=T 12.454894=T 13.56816=T -8.99=T -6.8063=T -8.938=T 0.9581=T 0.067=T 1.456=T 8.44407=T -0.81294=T 6.1103152478=T 0.298311291=T pbc="F F F"
C        3.06285026      -1.15734048      -0.64552505
C        2.54423491       0.03077639       0.16871579
C        3.33964223       1.32050111      -0.04770681
C        3.31784664       1.87522950      -1.50009816
C        3.39499065       3.37003191      -1.30510615
C        3.15542251       3.71879444      -0.03275708
C        2.87782935       2.51405319       0.83256577
H        2.49060973      -2.07137320      -0.43150860
H        4.11983864      -1.36361014      -0.41479215
H        2.99138043      -0.96769826      -1.72709024
H        2.56444406      -0.22593802       1.24195288
H        1.48428236       0.21916216      -0.08055960
H        4.39684220       1.12032338       0.20533237
H        2.37784484       1.60416815      -2.02025468
H        4.13768902       1.47708976      -2.11851969
H        3.58032330       4.06935165      -2.12258881
H        3.11652920       4.74438495       0.33909893
H        3.39861608       2.54430266       1.80303028
H        1.79667357       2.44793087       1.06359101
