13
Properties=species:S:1:pos:R:3 -1342.016965763872=T 9.580157=T 10.07651=T -8.3768=T -6.3362=T -9.05=T 1.4374=T -0.1606=T 0.608=T 8.63277=T -0.02715=T 5.0473212768=T 10.499196473=T 0.112122214=T pbc="F F F"
O        1.12754899      -0.04850992       0.83671316
C        2.42446373       0.01347427       0.28969565
C        2.61285379       0.79170370      -0.98129499
N        3.99005366       1.12468019      -1.30163363
N        4.71383686      -0.02421436      -1.62389334
C        3.95579144      -1.06238293      -1.43368874
C        2.57316969      -0.75838187      -1.00449563
H        0.96515242       0.78764261       1.30986994
H        3.25483135      -0.01785808       1.00485944
H        1.81047941       1.42937834      -1.35622779
H        4.14084517       1.85299269      -1.99876934
H        4.35445157      -2.05869277      -1.61868666
H        1.71902192      -1.35181187      -1.33654807
