17
Properties=species:S:1:pos:R:3 -1674.559730148927=T 10.605814=T 11.91358=T -9.5801=T -7.4257=T -11.483=T 0.8768=T -0.0684=T 2.726=T 11.17455=T -2.4979=T 9.0308178764=T 11.5139474914=T 0.138885305=T pbc="F F F"
C        2.02846787      -0.46481774      -1.31371680
O        2.23669213       0.09354333      -0.02074754
C        3.00589021       1.27425908      -0.05690995
C        2.36529085       2.62114267      -0.50976053
C        3.16960605       3.31285373       0.62408251
C        3.28422562       1.92570437       1.31307379
O        4.42439905       1.57710059       2.07400670
H        1.44495860      -1.38391081      -1.17570899
H        2.98846843      -0.71704586      -1.80347196
H        1.46605761       0.22183430      -1.97250689
H        3.95952614       1.10191146      -0.60212541
H        1.28705151       2.61777767      -0.29620926
H        2.53590039       2.95727581      -1.53964322
H        4.15310773       3.65695302       0.26757096
H        2.69226748       4.12474842       1.18620933
H        2.41845067       1.74715315       1.96902387
H        5.21083967       1.74208680       1.52349340
