13
Properties=species:S:1:pos:R:3 -1377.6163274436392=T 9.976637=T 10.49211=T -8.8413=T -6.8822=T -8.878=T 0.6983=T -0.4377=T 0.553=T 8.17342=T -0.00528=T 5.043502508=T 6.479632346=T 0.343503565=T pbc="F F F"
O        3.09018787      -0.72029033      -1.02554747
C        2.25004618       0.00872185      -0.11660512
C        2.72296256       1.42670990      -0.08139074
C        2.10142788       2.61620862       0.27999866
C        3.10888155       3.60026994       0.15310221
N        4.27228049       3.08047336      -0.26503845
N        4.00897602       1.75815969      -0.38424341
H        2.90469147      -1.66666896      -0.91129279
H        2.30698053      -0.43246593       0.89664647
H        1.19248596      -0.01575524      -0.43464021
H        1.06965173       2.74863473       0.58960207
H        3.03730728       4.66857939       0.34000317
H        4.71237048       1.12547299      -0.75336438
