19
Properties=species:S:1:pos:R:3 -1874.3709060842236=T 11.604518=T 13.02843=T -9.5514=T -7.4373=T -10.969=T 0.8782=T -0.093=T 2.762=T 10.61921=T -2.38437=T 8.6067113648=T 10.9573991346=T 0.204914335=T pbc="F F F"
C        1.06162148       0.16422438       0.16402406
C        2.55356260      -0.04484614      -0.12433114
C        2.77341574      -0.73820328      -1.47640027
C        3.32273794       1.27217860      -0.04224331
O        2.90582532       2.27408230      -0.96073782
C        3.72851172       1.81385863       1.29491051
C        4.78338202       1.26170625       0.34572315
H        0.90790678       0.61107013       1.15694799
H        0.51697932      -0.79063040       0.12959890
H        0.61677381       0.84132966      -0.57975328
H        2.97270460      -0.69804612       0.66217504
H        2.34629054      -0.14470433      -2.30111203
H        2.27758358      -1.71938865      -1.49897624
H        3.84348331      -0.89439414      -1.68033816
H        3.20933451       2.00132872      -1.84531423
H        3.47534187       1.23573400       2.18488268
H        3.68872225       2.89639898       1.41492498
H        5.43250440       1.98925103      -0.14263619
H        5.25255822       0.30604037       0.58715536
