13
Properties=species:S:1:pos:R:3 -1387.538659466061=T 10.153848=T 11.17482=T -9.6895=T -7.5113=T -10.173=T 0.745=T -1.2031=T -0.059=T 10.01349=T 0.73109=T 3.6831405146=T 10.756901374=T 0.584041764=T pbc="F F F"
O        2.65983704      -0.59866777       1.30190538
C        2.31313173      -0.00684538       0.04971143
C        2.93896288       1.40399935      -0.00012867
C        2.38368143       2.23125889       1.18098991
O        1.30772277       2.78815115       1.13095764
C        4.39516589       1.39347061      -0.00365338
C        5.60762531       1.43286418       0.02606339
H        2.28189145      -1.49289657       1.33019039
H        1.21984972       0.10979341      -0.05511729
H        2.69660067      -0.59615104      -0.80125073
H        2.56040355       1.88521611      -0.91793544
H        3.03683700       2.27321895       2.08318498
H        6.67823056       1.45321811       0.04146237
