15
Properties=species:S:1:pos:R:3 -1472.8145371367652=T 9.778922=T 10.3243=T -9.2614=T -7.0189=T -9.135=T 1.0162=T -0.0221=T 1.466=T 8.53188=T -0.85154=T 6.4032693686=T 0.409513609=T pbc="F F F"
C        2.06375278      -0.31767646       1.50200182
C        2.51290040       0.04303468       0.07667549
C        3.08911707       1.43574332      -0.05328323
C        2.13726497       2.58516878       0.15376258
C        4.38396686       1.63378170      -0.34600085
H        1.66118759      -1.34008005       1.53425346
H        1.27763153       0.35778974       1.86846271
H        2.90934003      -0.26279361       2.20300687
H        1.64678052      -0.04996242      -0.60313665
H        3.26133903      -0.68834666      -0.26522138
H        1.29811458       2.52949851      -0.55939036
H        2.63822791       3.55291551       0.02102932
H        1.69383976       2.56757172       1.16172185
H        5.06488529       0.79473584      -0.50473314
H        4.80261169       2.63814938      -0.43865848
