14
Properties=species:S:1:pos:R:3 -1447.6624622608456=T 9.502284=T 9.99432=T -8.3575=T -6.2083=T -8.925=T 0.9766=T 0.0146=T 1.258=T 8.51486=T -0.71191=T 5.8649221566=T 0.237860857=T pbc="F F F"
C        0.95471409       0.00455391      -0.06439636
C        2.49175590       0.01100886      -0.02456781
C        3.10471649      -1.23870421       0.65471614
O        3.54962294      -0.83170958       1.98949363
C        3.56625834       0.54133633       1.96723477
C        3.04764550       1.10480417       0.86790300
H        0.57763666      -0.82127735      -0.68702679
H        0.56865340       0.94520279      -0.48336765
H        0.54242194      -0.10721920       0.94919787
H        2.87272632       0.09455906      -1.05589560
H        3.99400417      -1.60189539       0.11557287
H        2.39243520      -2.06533841       0.78307967
H        3.98714778       0.99872239       2.86107873
H        2.95153128       2.17152664       0.68524753
