16
Properties=species:S:1:pos:R:3 -1679.1781481322676=T 11.076654=T 12.30649=T -10.9036=T -8.7154=T -11.375=T 0.7897=T -0.1332=T 1.567=T 10.91046=T -1.13261=T 5.3346464332=T 10.0800989958=T 0.207844589=T pbc="F F F"
C        0.89658460      -0.01710138       0.08919611
C        2.42464800       0.00059607       0.00252205
C        3.19477806       1.07743478       0.85216730
C        4.22579581      -0.00624810       1.25622261
C        3.21739053      -1.09374427       0.80785382
C        2.85599244       0.03359410      -1.39426971
N        3.19750515       0.05990579      -2.51083061
H        0.58853216      -0.04176369       1.14368616
H        0.48359185      -0.90106092      -0.41650226
H        0.46506284       0.87791418      -0.38029519
H        2.56605873       1.39010206       1.69791842
H        3.55475463       1.96659710       0.32001471
H        5.11249206       0.01618889       0.60831788
H        4.55256332      -0.02424989       2.30359426
H        3.59551456      -1.95280527       0.24003079
H        2.59564525      -1.45363944       1.63987366
