9
Properties=species:S:1:pos:R:3 -1047.2079226930819=T 10.000551=T 9.69455=T -9.8723=T -7.8485=T -9.19=T -0.5227=T -2.2697=T -1.39=T 8.61086=T 2.03917=T 3.7581024502=T 11.3052790534=T 0.480071359=T pbc="F F F"
C        0.94993164      -0.03747098      -0.00141144
C        2.16436433      -0.00791623       0.00018498
C        3.56985710       0.04313169       0.00231427
C        4.44037273       1.11368682       0.00065675
N        5.70912210       0.59549159       0.00418046
N        5.71109329      -0.65993016       0.00787022
O        4.27771435      -1.09971432       0.00675033
H       -0.12094889      -0.06773193      -0.00277500
H        4.23747337       2.17768352      -0.00273057
