13
Properties=species:S:1:pos:R:3 -1342.7132148139804=T 10.458625=T 10.33209=T -7.7344=T -5.8891=T -8.693=T 1.139=T -0.4906=T 0.536=T 8.11998=T 0.05985=T 4.758334708=T 8.656950492=T 0.158526574=T pbc="F F F"
O        1.16884622       0.09963464      -0.38293041
N        2.55981995      -0.01519016      -0.30414599
C        3.20660710      -1.16879662       0.15525862
C        4.45940083      -0.86227824       0.55034863
C        4.65896235       0.63250067       0.40941099
C        3.28098927       1.12716708      -0.01266981
N        2.66547561       2.26031286      -0.06884566
H        1.08606986       1.09202888      -0.30086354
H        2.70214846      -2.12767955       0.07786602
H        5.23324773      -1.57323409       0.82112967
H        4.98404127       1.12499441       1.33812631
H        5.40427732       0.87782095      -0.36601533
H        3.26076403       3.04995915       0.18882050
