14
Properties=species:S:1:pos:R:3 -1467.443155684821=T 9.354673=T 10.11883=T -9.4682=T -7.4737=T -10.74=T 0.661=T -0.3221=T 0.493=T 10.14019=T 0.08316=T 4.864404731=T 6.389432531=T 0.152139273=T pbc="F F F"
O        1.47643874       0.10811160       0.98759060
C        2.40435851       0.05490854       0.19925813
N        2.89288606      -1.12475453      -0.31291790
C        4.04920838      -1.30805613      -1.18647170
C        4.89840976      -0.04434821      -1.15369726
C        3.97774369       1.15419806      -1.29105144
O        3.02627418       1.21431515      -0.20105347
H        2.38073599      -1.93788970       0.01378529
H        4.62700807      -2.17941846      -0.84208462
H        3.72201509      -1.51460150      -2.22219509
H        5.44999429       0.02627526      -0.20376634
H        5.63022416      -0.05668725      -1.97387817
H        4.52265607       2.10562436      -1.24233946
H        3.42319701       1.11880282      -2.24533855
