12
Properties=species:S:1:pos:R:3 -1228.822372830561=T 10.078514=T 10.65439=T -8.9096=T -6.9205=T -9.633=T 0.857=T -0.0975=T 0.879=T 8.87794=T -0.33565=T 4.4013542168=T 10.877477759=T 0.449161746=T pbc="F F F"
N        3.02160789      -1.51901511       0.62587909
C        2.35417184      -0.54276199       0.11461119
N        2.92242660       0.68728033      -0.08486842
C        4.35742427       0.86954675       0.13266454
C        4.76774961       2.23412138      -0.16440606
C        5.10717736       3.36862693      -0.42748570
H        2.41755385      -2.33805328       0.73757584
H        1.29291958      -0.56709790      -0.18655543
H        2.45219075       1.35151049      -0.68995950
H        4.93569226       0.15459631      -0.48152322
H        4.58737976       0.61513518       1.18054183
H        5.41734624       4.36920089      -0.65035415
