15
Properties=species:S:1:pos:R:3 -1632.2526381382409=T 11.383926=T 12.39314=T -7.8759=T -5.9448=T -7.813=T 0.9173=T 0.0739=T 0.72=T 7.39473=T -0.09819=T 4.3150351636=T 6.8183744966=T 0.426582096=T pbc="F F F"
C        1.00815897      -0.08010761      -0.00743678
C        2.47879114       0.13090324       0.00009808
C        3.27993448       1.24009921       0.00438655
C        4.63617655       0.77474085       0.01120446
C        4.58690671      -0.59286899       0.01064625
C        5.61546254      -1.67147169       0.01508316
O        3.26733690      -1.00137157       0.00377017
H        0.49681303       0.89018528      -0.00094531
H        0.67617137      -0.64915357       0.87460048
H        0.68242082      -0.63391059      -0.90150534
H        2.93858043       2.27123047       0.00304991
H        5.53797321       1.38016082       0.01605418
H        5.12543723      -2.65290318       0.02568354
H        6.26557640      -1.60716648       0.89998260
H        6.25811022      -1.62289619      -0.87640195
