17
Properties=species:S:1:pos:R:3 -1680.914569694289=T 10.400493=T 11.36998=T -9.4219=T -7.264=T -11.207=T 0.9522=T 0.0292=T 2.982=T 10.67243=T -2.73174=T 8.9280210838=T 12.5856700768=T 0.087693975=T pbc="F F F"
C       -1.43489464       0.71674803       0.15282137
C       -1.46175981      -0.78739965      -0.10921949
O       -0.28611447      -1.48447226       0.31554772
C        0.84713541      -1.17147497      -0.48924108
C        1.66904814       0.02118705      -0.00214167
O        0.96750902       1.24165760       0.25454913
C       -0.24627055       1.46290183      -0.46341097
H       -2.37007899       1.14553789      -0.24874089
H       -1.42590494       0.90758046       1.23742682
H       -1.62355054      -0.97613897      -1.19075564
H       -2.29285297      -1.25446544       0.43946694
H        1.51247837      -2.05107036      -0.46817792
H        0.53047351      -1.03070617      -1.54044235
H        2.15712322      -0.23394083       0.95116038
H        2.46526919       0.19301968      -0.75557133
H       -0.41918449       2.54703102      -0.38891327
H       -0.13637546       1.22638509      -1.53998775
