18
Properties=species:S:1:pos:R:3 -1805.722250295101=T 11.532185=T 12.67686=T -8.5129=T -6.4348=T -10.042=T 0.9144=T 0.0087=T 2.945=T 9.35549=T -2.66395=T 8.0518492176=T 10.1228741658=T 0.107168747=T pbc="F F F"
C        1.03434979      -0.04551838      -0.04509300
C        2.53954410       0.03433615      -0.01025410
C        3.47037962      -0.57595656      -1.11052450
C        4.54439196      -0.36796495      -0.00294079
C        3.42107115      -0.74291005       1.01013718
C        4.54651586       1.16270528       0.13243939
N        3.06517645       1.42011855       0.18142340
H        0.60753716       0.38046353       0.87444533
H        0.69799730      -1.08724879      -0.14038975
H        0.62828273       0.51892002      -0.89961251
H        3.57947019      -0.02039245      -2.05592634
H        3.26832464      -1.63854355      -1.30516463
H        5.51572099      -0.87735412      -0.01915761
H        3.20149978      -1.81836138       1.01767587
H        3.47914076      -0.33788924       2.03062977
H        5.03337001       1.50573834       1.05913116
H        5.03302511       1.65964635      -0.72200624
H        2.79397239       1.98683125      -0.62822263
