17
Properties=species:S:1:pos:R:3 -1721.7130730199704=T 11.498922=T 12.5895=T -9.4239=T -7.2417=T -9.3=T 1.0896=T -0.3145=T 1.178=T 8.65583=T -0.52668=T 6.2622600908=T 0.351035491=T pbc="F F F"
C        1.91952505      -0.23644677       1.35787418
C        2.27223673       0.28265071      -0.04735775
C        2.94172316       1.63836729      -0.03544921
C        2.27954317       2.77782176      -0.28664644
C        4.42349384       1.68453640       0.21512348
C        5.01149033       2.04726922       1.52008599
O        5.00691180       0.67826645       1.07198321
H        1.43064830      -1.21933176       1.29219264
H        1.23034774       0.45455787       1.86474987
H        2.82164691      -0.34310068       1.97404495
H        1.35658120       0.34797943      -0.65529141
H        2.93763675      -0.44529824      -0.54024868
H        1.21672629       2.77233475      -0.53685345
H        2.77744108       3.74967620      -0.25789099
H        5.03252401       1.88938148      -0.67630945
H        4.33689328       2.26754771       2.35398486
H        5.99836036       2.52098817       1.56012818
