16
Properties=species:S:1:pos:R:3 -1574.6715697034965=T 11.479094=T 12.34944=T -9.1803=T -7.124=T -10.564=T 1.3669=T -0.5224=T 0.324=T 10.17478=T 0.20918=T 5.3838068822=T 6.4963828546=T 0.370611067=T pbc="F F F"
C        0.10863538       0.51696142      -0.40065233
C        1.36861088      -0.19015188       0.04049104
C        2.13793103      -1.09260940      -0.91062848
C        2.70910816       0.23019356      -0.49563007
O        3.85237315       0.14030896       0.33930529
N        3.94316918       1.30816365       1.13425679
C        4.96413134       1.25566155       1.90576376
H       -0.08499098       1.40581640       0.21810561
H       -0.76672056      -0.14631433      -0.32739523
H        0.18429087       0.84773304      -1.44743974
H        1.39224419      -0.51044481       1.08532089
H        1.78924191      -1.19528866      -1.93931854
H        2.61091542      -1.98035017      -0.49038456
H        2.75512032       1.04910823      -1.21968781
H        5.11985916       2.11916511       2.55302198
H        5.65534055       0.40470734       1.93385139
