17
Properties=species:S:1:pos:R:3 -1687.8643291235403=T 14.003329=T 14.02902=T -7.8948=T -6.1027=T -8.58=T 1.4415=T -0.0993=T 0.669=T 7.83707=T -0.10572=T 4.8032672344=T 5.1680960394=T 0.551356805=T pbc="F F F"
C        1.96759859      -0.50408469       0.26985061
C        3.35811149      -0.45247609      -0.36524350
N        3.70402972       0.90333092      -0.76293217
C        4.75733104       1.41442643      -0.24929581
N        5.17260615       2.69366493      -0.55646184
C        6.30010887       3.31098695      -0.03636206
C        6.71789201       4.55579302      -0.32581204
H        1.68384464      -1.54167213       0.49806551
H        1.21855800      -0.07931408      -0.41272523
H        1.94240078       0.07466893       1.20431489
H        3.36072459      -1.08307708      -1.27166183
H        4.10621294      -0.88741353       0.33138280
H        5.42067627       0.89499653       0.46850978
H        4.58614358       3.20065233      -1.21865756
H        6.85617274       2.68135049       0.66279478
H        6.18112937       5.20304252      -1.02075647
H        7.62046922       4.94491453       0.13841015
