15
Properties=species:S:1:pos:R:3 -1578.203652525271=T 11.873345=T 13.72497=T -8.942=T -6.7538=T -8.969=T 0.9056=T -0.0346=T 2.344=T 8.57854=T -1.86464=T 4.0999938452=T 9.0547719716=T 0.230594784=T pbc="F F F"
C        0.93645487       0.02831524      -0.05898257
C        2.38932243      -0.01206062       0.01317134
C        3.60467314      -0.04337747       0.07890828
C        5.03717449      -0.08515546       0.14607306
C        5.85523296      -0.79099563      -0.94368174
C        5.88273116       0.70689837      -0.82663138
O        7.00965709       1.34359117      -0.26948409
H        0.55853820       1.06034602       0.00638696
H        0.48290900      -0.54631455       0.76324304
H        0.57262145      -0.40229632      -1.00462903
H        5.47246562      -0.14791016       1.14694925
H        5.30746106      -1.23825649      -1.77303476
H        6.73588091      -1.33420857      -0.59997156
H        5.33712836       1.28770023      -1.57790460
H        7.71755926       1.32799423      -0.93843221
