14
Properties=species:S:1:pos:R:3 -1385.6321955604456=T 9.926844=T 10.64632=T -9.6267=T -7.379=T -10.734=T 1.2716=T -0.4862=T 0.271=T 10.24435=T 0.34477=T 5.4322978068=T 6.5362443536=T 0.209515261=T pbc="F F F"
O        0.76532867       1.74290154      -0.40396999
N        2.14624934       1.88600933      -0.68085101
C        2.85061307       1.14417553       0.09234220
C        4.33663410       1.13418650      -0.01433918
C        5.05114575       2.16411897      -0.91157388
O        5.94312309       2.55199170       0.17795056
C        5.16012371       1.78651915       1.13191439
H        0.36684536       2.35665545      -1.04710396
H        2.36954181       0.50536812       0.84812897
H        4.68216078       0.10576510      -0.20412573
H        4.40776318       2.99803032      -1.23149843
H        5.60866517       1.76501167      -1.77163287
H        5.78816943       1.11550711       1.73831795
H        4.56500654       2.44179951       1.79186098
