13
Properties=species:S:1:pos:R:3 -1352.3588368095186=T 12.401298=T 12.61793=T -7.9858=T -6.1562=T -8.467=T 0.7692=T -0.7614=T -0.261=T 7.9124=T 0.8788=T 4.1074825996=T 10.2991946564=T 0.381556027=T pbc="F F F"
C        0.87562233       0.01034355       0.04329378
C        2.37036310       0.01262407       0.07925922
C        3.22585180       1.09219041      -0.09707866
N        2.82264358       2.40070421      -0.41445112
C        4.58677351       0.67281073      -0.00236928
N        4.81941813      -0.61389636       0.23204522
S        3.34405818      -1.39776314       0.34421990
H        0.45445564       0.70325462       0.79121030
H        0.46478293      -0.98488022       0.25721169
H        0.50050102       0.32031348      -0.94527930
H        3.49005232       3.11120134      -0.11965431
H        1.89184085       2.63706538      -0.07502975
H        5.44471661       1.34160191      -0.11220770
