19
Properties=species:S:1:pos:R:3 -1872.5309852779533=T 12.540513=T 14.14401=T -9.6491=T -7.3776=T -9.545=T 0.9778=T -0.0332=T 1.334=T 9.00274=T -0.77546=T 6.6775883936=T 0.474243047=T pbc="F F F"
O        0.96447966      -0.37088824      -0.21129439
C        2.36709258      -0.23588511       0.06253518
C        2.73795244       1.23447765      -0.06068876
C        4.22297185       1.48890787       0.20966332
C        4.61048618       2.97340008       0.08572444
C        6.06864285       3.21961711       0.34084399
C        6.56210375       3.98699393       1.31957898
H        0.73074760      -1.31025935      -0.12548278
H        2.96481889      -0.83449921      -0.65220755
H        2.60404650      -0.59807694       1.08174529
H        2.11902627       1.81323979       0.64497243
H        2.47010095       1.58095718      -1.07286536
H        4.83555862       0.89562351      -0.49231957
H        4.48589594       1.13635821       1.22167019
H        4.00496118       3.57609421       0.78300392
H        4.35548927       3.31773998      -0.93333409
H        6.76709158       2.70738280      -0.33290704
H        5.90264114       4.51321930       2.01533891
H        7.63599274       4.11961724       1.45907288
