19
Properties=species:S:1:pos:R:3 -1813.5747082537218=T 11.994327=T 13.11144=T -8.8972=T -6.7012=T -10.262=T 0.8811=T -0.0668=T 3.033=T 9.69827=T -2.77128=T 8.4213398962=T 11.1947083386=T 0.100311603=T pbc="F F F"
N        2.07967999      -0.45517101      -1.40560084
C        2.34004517       0.00585162      -0.03280428
C        3.24965216       1.22474620      -0.02995722
C        2.69958694       2.55020508      -0.63009226
C        3.21794040       3.32897529       0.61183712
N        4.37670000       4.16794448       0.30651156
C        3.45382963       1.95334804       1.32933950
H        1.41785947      -1.23437177      -1.39521872
H        2.94300525      -0.82104941      -1.81675584
H        2.77941244      -0.76793508       0.63272678
H        1.37022531       0.29027248       0.41205107
H        4.21806077       0.95233079      -0.48550348
H        1.60277870       2.54099506      -0.70853556
H        3.11025588       2.88185663      -1.59361179
H        2.47118748       3.97116998       1.10328342
H        5.10595497       3.60978743      -0.14810752
H        4.78902698       4.52451929       1.17334953
H        4.42566702       1.82991544       1.83026556
H        2.65532147       1.71228945       2.04988296
