15
Properties=species:S:1:pos:R:3 -1495.377806961202=T 11.148728=T 11.6943=T -9.1675=T -7.0072=T -9.729=T 0.7882=T -0.17=T 0.991=T 9.19033=T -0.39868=T 5.0459326336=T 6.4897744008=T 0.352120977=T pbc="F F F"
N       -0.23932330       0.87141244      -0.97574308
C        0.54296749       1.21553906       0.11083243
N        0.29786178       2.06976001       1.04136169
C        1.91851031       0.57386819       0.11953157
O        1.85467707      -0.72013716      -0.50166255
C        3.04039686      -1.38740660      -0.63006142
C        4.25768954      -0.99658548      -0.22713634
H       -0.01976365      -0.01993683      -1.41571955
H       -1.22879720       1.09279755      -0.92027030
H       -0.62200501       2.51389875       0.91158056
H        2.26245857       0.49490543       1.16098686
H        2.62201012       1.21450555      -0.44187177
H        2.87051826      -2.34324479      -1.12997538
H        4.45440992      -0.05525729       0.28179969
H        5.10069924      -1.65860883      -0.41301241
