11
Properties=species:S:1:pos:R:3 -1179.101436122484=T 11.821761=T 11.87914=T -8.3737=T -6.5648=T -9.088=T 0.4737=T -1.0837=T -0.284=T 8.52568=T 0.81409=T 4.2929904528=T 11.4062532518=T 0.195883859=T pbc="F F F"
C        2.19180880       0.04057177       0.94106914
N        1.80487553       0.08559947      -0.53715355
C        2.50188041       1.34161607      -0.64816478
C        2.90004658       2.45583028      -1.33973455
S        3.60694373       3.52089451      -0.12611946
N        3.36675398       2.50308407       1.22310831
C        2.79645211       1.42964322       0.72461659
H        2.91870530      -0.74532505       1.19180649
H        1.31349454      -0.02343608       1.59718483
H        2.16345349      -0.68611520      -1.10549833
H        2.86379554       2.74350696      -2.38650468
