12
Properties=species:S:1:pos:R:3 -1259.0669144137787=T 8.889042=T 9.69718=T -8.661=T -6.5865=T -10.158=T 1.9068=T -0.0323=T 0.212=T 9.85025=T 0.32567=T 5.753942288=T 10.378310123=T 0.4241367=T pbc="F F F"
C        0.82225332      -0.09198935       0.06323595
C        2.27506818       0.38985534      -0.14852597
C        1.12472354       1.32122062      -0.28136408
O        0.91982705       2.36454664       0.68469295
C        0.47213908       3.40834443      -0.06587021
N        0.35007099       3.22342134      -1.32863516
O        0.75664742       1.87040148      -1.55343645
H        0.50400866      -0.31015836       1.08290652
H        0.37401164      -0.70776773      -0.71694705
H        2.77921598       0.08988675      -1.06757050
H        2.91008736       0.48766874       0.73227426
H        0.24204680       4.33982010       0.44259975
