10
Properties=species:S:1:pos:R:3 -1180.6371049409902=T 9.249285=T 8.80278=T -9.498=T -7.5651=T -9.435=T -0.9571=T -2.716=T -1.759=T 9.05374=T 2.19366=T 3.2900429016=T 8.8199796834=T 0.323534738=T pbc="F F F"
O        1.00155533       0.08299085       0.19941617
C        2.19971686      -0.01978641       0.07838358
O        2.97946294       1.17565627      -0.00483047
C        4.32035160       1.09003724      -0.14026878
C        4.96757287      -0.10158210      -0.20130972
N        4.28900566      -1.29865870      -0.12759692
C        2.99270581      -1.24719224       0.00387676
H        4.80149221       2.06765882      -0.19302706
H        6.05061759      -0.14212968      -0.31099925
H        2.42734912      -2.18126405       0.06489569
