17
Properties=species:S:1:pos:R:3 -1675.6518953794427=T 13.890902=T 13.5295=T -7.7416=T -5.8843=T -8.279=T 0.895=T -0.6208=T -0.007=T 7.80068=T 0.55635=T 4.5834772522=T 0.325953806=T pbc="F F F"
C        1.06560287      -0.29298803       0.64470663
C        2.54897462      -0.25766996       0.44713821
C        3.26591306       0.87239662       0.27333690
C        4.70487196       0.99080195       0.08392889
C        5.60948515      -0.21018200      -0.00484433
N        5.15419767       2.21467417      -0.00832206
N        6.49433094       2.38963745      -0.24082642
H        0.80127419      -0.74960185       1.61314288
H        0.57286744      -0.90451438      -0.12933531
H        0.62917907       0.71500011       0.61257054
H        3.05487571      -1.22902536       0.45276039
H        2.74745884       1.83726572       0.27718221
H        5.05132856      -1.15182610       0.00912558
H        6.32389970      -0.24062950       0.83644821
H        6.19927343      -0.17689317      -0.93515938
H        6.77309581       3.33000033       0.02924307
H        7.12780099       1.67693401       0.13805399
