13
Properties=species:S:1:pos:R:3 -1340.821738267332=T 11.369543=T 11.10204=T -8.9768=T -6.9751=T -10.128=T -0.8716=T -2.659=T -1.468=T 10.0432=T 1.88719=T 2.9642076936=T 4.8289571336=T 0.544490114=T pbc="F F F"
C        0.16572363       0.46255867       0.27459338
C        0.76125827      -0.89806862       0.11001934
C       -0.16519930      -2.07773480       0.24658898
O       -1.35156165      -1.92609944       0.49947408
N        2.03495941      -0.98887820      -0.13961815
N        2.50404589      -2.31536373      -0.27825473
C        3.76726095      -2.32492508      -0.50789662
H        0.93635730       1.22908871       0.14405500
H       -0.29610094       0.55835303       1.26806346
H       -0.64485410       0.61451124      -0.45277751
H        0.29031128      -3.07734040       0.10502152
H        4.25214622      -3.29574002      -0.63601517
H        4.35551305      -1.39837133      -0.57477358
