14
Properties=species:S:1:pos:R:3 -1459.9984171531776=T 9.37896=T 10.24586=T -10.0342=T -7.7772=T -11.239=T 0.6132=T -0.4289=T 0.188=T 10.29458=T 0.44438=T 4.3544379144=T 12.752518037=T 0.154342821=T pbc="F F F"
N        0.97594369       0.02842383      -0.03332188
C        2.44032390      -0.01245855       0.00503225
C        3.00887405       1.08797779       0.91954415
O        4.26755362       0.57751967       1.42406022
C        4.28265240      -0.79856817       1.33596518
O        5.21082300      -1.45689069       1.73790504
C        2.98719533      -1.26644145       0.68458120
H        0.62414905      -0.75227065      -0.59334031
H        0.66051263       0.87675993      -0.51240878
H        2.91632934       0.08548837      -0.99150271
H        2.32478496       1.26817110       1.76470302
H        3.22081475       2.03421656       0.40499932
H        3.17840027      -2.11945662       0.02348298
H        2.29949300      -1.59093112       1.48375031
