15
Properties=species:S:1:pos:R:3 -1539.310963983548=T 10.348164=T 11.41003=T -9.5981=T -7.4643=T -10.891=T 0.8459=T -1.0145=T -0.053=T 9.93632=T 0.6832=T 3.7085328474=T 7.1003434578=T 0.151929096=T pbc="F F F"
C        0.97746230       2.18203227      -1.96925851
O        1.85386338       3.15331058      -1.38945801
C        2.61284602       2.60810280      -0.34999766
C        3.90973879       1.93694768      -0.64281565
C        3.91017350       3.34579584      -0.03906338
C        4.27167963       3.51170421       1.38637564
O        4.15651775       2.63666691       2.23359713
H        0.42465228       2.69498649      -2.76511623
H        0.26282071       1.79233014      -1.22281508
H        1.54245724       1.33641005      -2.39850365
H        2.04477156       2.26123726       0.52308455
H        4.22279733       1.87175066      -1.68454571
H        4.23620172       1.14120268       0.02819677
H        4.13842535       4.17538120      -0.70931208
H        4.66012245       4.52401122       1.66329189
