16
Properties=species:S:1:pos:R:3 -1643.8039631714182=T 10.699043=T 11.70261=T -9.3234=T -7.3324=T -10.563=T 0.686=T -0.268=T 0.674=T 9.66275=T 0.02813=T 4.4460387712=T 6.3595147092=T 0.154314435=T pbc="F F F"
C        0.95587742      -0.03986256       0.23400073
C        2.45127955       0.04040101      -0.06710910
C        2.73880932       0.03823367      -1.56738243
C        3.23207786       1.12369035       0.75106007
C        3.96921238      -0.05497818       1.42966361
O        4.83218865      -0.17690208       2.27768841
N        3.25248171      -0.96527860       0.68338008
H        0.77397752      -0.03791996       1.31749381
H        0.52000508      -0.95887792      -0.18662107
H        0.42521425       0.81446096      -0.21097156
H        3.81941599       0.09086375      -1.75896159
H        2.25546742       0.89760634      -2.05469117
H        2.34922598      -0.87596228      -2.04059614
H        2.62286933       1.72384353       1.43858957
H        3.88665615       1.77630187       0.15968534
H        3.27372139      -1.98448989       0.65660146
