17
Properties=species:S:1:pos:R:3 -1750.947228347787=T 11.309715=T 12.05891=T -8.3675=T -6.3377=T -8.954=T 0.9125=T -0.0083=T 1.289=T 8.49075=T -0.71604=T 5.9924541562=T 0.279635532=T pbc="F F F"
C        0.90669278       0.07764553      -0.14741142
C        2.40977763      -0.02983331       0.15954967
C        3.19531064       1.23127340      -0.25288064
C        3.56265353       1.17449416      -1.73056765
O        4.40623616       0.04192934      -2.03467345
C        3.98401748      -1.12403028      -1.45420520
C        3.05535563      -1.22909805      -0.48764970
H        0.45164354       0.90960556       0.41251061
H        0.38049589      -0.84717097       0.13115842
H        0.72943502       0.24410281      -1.22055635
H        2.51036869      -0.14468482       1.25413588
H        2.60942926       2.14323244      -0.05786593
H        4.12341075       1.30320580       0.33570701
H        4.13430965       2.05616847      -2.04877344
H        2.65536063       1.09776350      -2.35662716
H        4.51231890      -1.98151670      -1.87465509
H        2.79811382      -2.22888689      -0.13461555
