15
Properties=species:S:1:pos:R:3 -1505.5745027931114=T 10.92805=T 11.42612=T -8.5869=T -6.5796=T -9.156=T 1.3445=T -0.0326=T 0.696=T 8.67956=T -0.06004=T 4.6918534148=T 9.784169211=T 0.166451661=T pbc="F F F"
C        2.12700378      -0.17694563      -0.03623058
C        0.79760032      -0.86684555       0.17027166
C       -0.40268821      -1.43125410      -0.54627310
C       -1.50592222      -0.45298056      -0.07244044
N       -1.37671676       0.69994810       0.51341216
N       -0.09207531       1.23815944       0.74474365
C        0.83803144       0.61442437      -0.14677614
H        2.67960850      -0.24170498      -0.97575381
H        2.75321295      -0.13215841       0.85586308
H        0.65012691      -0.98196538       1.24978662
H       -0.66930739      -2.45500750      -0.23251780
H       -0.32272541      -1.44122563      -1.64564073
H       -2.54763570      -0.78116450      -0.15571886
H       -0.17977164       2.25488526       0.71161897
H        0.59760875       0.80366506      -1.20353466
