15
Properties=species:S:1:pos:R:3 -1559.019603219743=T 10.007954=T 10.98262=T -9.1101=T -7.0451=T -10.446=T 0.7709=T -1.0423=T 0.138=T 9.7255=T 0.63781=T 3.6851862836=T 8.3649262662=T 0.083274904=T pbc="F F F"
C        1.09469942      -0.07316238       0.21911503
C        2.57254642       0.10943025      -0.11890827
O        2.78887198       0.30348427      -1.51320407
C        3.32259797       1.15978722       0.75523241
C        3.98448890       0.02634092       1.59868912
C        3.48663290      -0.96451415       0.54032348
O        3.78203110      -2.09319083       0.21860448
H        0.93495731      -0.18550088       1.30160969
H        0.69668359      -0.97164060      -0.27539174
H        0.53026245       0.80304818      -0.13065485
H        2.59390789      -0.54202089      -1.95900031
H        2.68464751       1.86655192       1.29908203
H        4.05250066       1.70800119       0.14745862
H        5.07269015       0.05609657       1.74272790
H        3.50745175      -0.14311078       2.57590648
