18
Properties=species:S:1:pos:R:3 -1738.9636191934785=T 11.360715=T 12.46537=T -8.5289=T -6.4897=T -9.931=T 0.9533=T -0.0432=T 2.983=T 9.14518=T -2.68014=T 7.8639484346=T 10.1737580202=T 0.115456548=T pbc="F F F"
C        1.04186010      -0.01100550       0.00974552
N        2.49027399      -0.00521300       0.09979517
C        3.12685818       1.04781483       0.92689140
C        4.16618521       0.00650133       1.40363486
C        3.14479895      -1.05705652       0.92071041
C        3.63821166      -2.26771980       0.14055322
O        4.28621490      -3.23495711       0.97603975
H        0.70293283      -0.90755740      -0.52939990
H        0.70211002       0.86689170      -0.55970406
H        0.54630652       0.00588859       1.00641246
H        2.47695653       1.38400580       1.76146939
H        3.48074390       1.92847566       0.36863676
H        5.07820686       0.01570800       0.78914088
H        4.42915194       0.01195609       2.46731294
H        2.50414717      -1.39710195       1.76324836
H        4.29675087      -1.92692121      -0.67994646
H        2.78510090      -2.79439341      -0.31458773
H        5.09505946      -2.82434609       1.32886704
