13
Properties=species:S:1:pos:R:3 -1387.3684685417788=T 10.102127=T 10.57053=T -8.0083=T -5.9697=T -7.946=T 0.6988=T -0.3058=T 0.289=T 7.57256=T 0.37699=T 3.9416885204=T 12.0173926444=T 0.303439259=T pbc="F F F"
C        0.92194708      -0.10799601      -0.03807712
C        2.40865345       0.01391592      -0.00156402
C        3.19482985       1.13456191       0.07650469
N        2.96271167       2.49584937       0.24963900
O        4.51641738       0.74671026       0.08143022
C        4.45304520      -0.62836524      -0.00354114
N        3.24947428      -1.10508448      -0.04436511
H        0.43759195       0.87412181      -0.13613095
H        0.53299243      -0.58239592       0.87640605
H        0.60346742      -0.72691152      -0.88971829
H        3.51214721       3.08031500      -0.38254940
H        1.97371381       2.72383354       0.16685961
H        5.40203828      -1.15258464      -0.04078354
