17
Properties=species:S:1:pos:R:3 -1777.9416477734624=T 13.938073=T 15.29423=T -8.5666=T -6.5253=T -8.391=T 0.8981=T -0.6129=T 0.742=T 7.87267=T -0.15622=T 3.79335167=T 11.3477938528=T 0.567118468=T pbc="F F F"
C        0.98771590      -0.12276833      -0.06638726
C        2.52147381      -0.00295394      -0.05263722
C        2.99364712       1.37545794      -0.01120874
C        3.34372441       2.54408163       0.02786770
C        3.83458522       3.88325547       0.06656260
C        5.33324761       4.04615632      -0.05668114
C        3.00175993       4.93738035       0.20471401
H        0.68661378      -1.17890730      -0.10356844
H        0.56505111       0.38984683      -0.94086037
H        0.55384666       0.33040157       0.83500138
H        2.94198384      -0.50101453      -0.94329904
H        2.92934173      -0.54857812       0.81597515
H        5.84959508       3.50115203       0.74766426
H        5.61928124       5.10485799      -0.00807153
H        5.69012908       3.62624234      -1.00911212
H        1.92403606       4.80105369       0.29065786
H        3.39235743       5.95548606       0.23256290
