19
Properties=species:S:1:pos:R:3 -1889.4762356375677=T 11.524227=T 12.86656=T -9.2046=T -7.0577=T -11.262=T 0.9406=T 0.0471=T 2.909=T 10.56512=T -2.61555=T 9.094249114=T 11.4286823192=T 0.108134412=T pbc="F F F"
C        0.99955939      -0.01276115      -0.08434115
C        2.52181992       0.05255937      -0.01175818
C        3.07494243       1.15192364       0.90910635
C        4.49661502       0.66323027       1.21778326
O        4.51447422      -0.76082981       0.97391887
C        3.19381607      -1.19290077       0.58670946
C        3.32444331      -2.38916144      -0.33905696
H        0.65996552      -0.83006406      -0.73757161
H        0.58013867       0.92253994      -0.48247760
H        0.56575460      -0.17583168       0.91504870
H        2.93437777       0.19624482      -1.02741763
H        2.46905169       1.20069742       1.82871288
H        3.06226842       2.14851042       0.44598765
H        5.24615532       1.13074660       0.55629352
H        4.79122338       0.85904351       2.26259673
H        2.62804192      -1.49354369       1.49660633
H        3.86725015      -2.10975354      -1.25403356
H        2.33216822      -2.77327401      -0.61692354
H        3.87569399      -3.20042585       0.15542649
