16
Properties=species:S:1:pos:R:3 -1577.7451609496795=T 9.801216=T 10.73141=T -9.7004=T -7.4911=T -11.322=T 0.9103=T -0.0987=T 2.835=T 10.99277=T -2.56791=T 9.0866487722=T 13.6752094504=T 0.211224129=T pbc="F F F"
C        0.93416902      -0.01464249       0.07369761
C        2.44814891       0.00270880       0.00512853
O        2.77964267       0.03904343      -1.39375696
C        3.21053701       1.08105252       0.84276379
C        4.21645795      -0.00969404       1.30599445
C        3.23298262      -1.09788258       0.79157181
H        0.59310600      -0.04256334       1.11726250
H        0.53905158      -0.89772131      -0.44930925
H        0.52044852       0.88340014      -0.40778780
H        3.74958160       0.05146160      -1.47469389
H        2.59824066       1.46704238       1.67073100
H        3.60083483       1.93281982       0.26778738
H        5.16124085       0.01327417       0.74318291
H        4.46300437      -0.03226694       2.37557539
H        3.64042942      -1.91349175       0.17741454
H        2.62911400      -1.53480041       1.60019800
