19
Properties=species:S:1:pos:R:3 -1815.6192815738848=T 12.826526=T 13.6882=T -9.0211=T -6.8262=T -8.788=T 0.7921=T -0.2942=T 1.482=T 8.2066=T -0.79106=T 6.1092489682=T 0.382945098=T pbc="F F F"
C        1.09171906       0.05943185      -0.12072510
C        2.57860780      -0.16090083      -0.02690304
C        3.01665908      -1.60205176      -0.17946613
N        2.57502295      -2.40092136       0.98423308
C        3.42470347       0.86483287       0.19411777
C        4.92047756       0.83315851       0.32249112
N        5.52629866       1.73205213      -0.68042279
H        0.81948673       1.10313884       0.08419287
H        0.56422696      -0.59500158       0.58942605
H        0.72347919      -0.20318126      -1.12706259
H        4.10311105      -1.65799718      -0.37477131
H        2.51150265      -2.02455606      -1.06557114
H        3.10039151      -2.10799877       1.81267273
H        2.80023499      -3.38675142       0.83082604
H        2.99904228       1.87204248       0.27343744
H        5.30069979      -0.20558565       0.28905041
H        5.19485297       1.23475386       1.31430564
H        5.35144202       1.36137056      -1.61819867
H        6.54135129       1.75856478      -0.55853235
