15
Properties=species:S:1:pos:R:3 -1552.8677887761805=T 10.738309=T 11.35967=T -9.5997=T -7.5015=T -10.078=T -0.0078=T -1.8235=T -0.844=T 9.76442=T 1.41809=T 3.4378962066=T 5.2866762498=T 0.448777146=T pbc="F F F"
O        2.58189564      -1.24628213       0.89476881
C        2.32384079      -0.24049799      -0.09519058
C        3.35234496       0.87896579       0.08029381
C        4.75621141       0.44514748      -0.24425982
C        5.67776351       0.08874897       0.67085245
C        5.15605919       0.38475964      -1.66873044
O        4.43053928       0.68132083      -2.60884140
H        2.01311380      -2.00962595       0.70076437
H        1.31242030       0.18624075       0.03493261
H        2.39299117      -0.65458582      -1.11548969
H        3.29974398       1.24673126       1.11547592
H        3.06713461       1.69987088      -0.59523959
H        5.46506701       0.10093879       1.74059320
H        6.67554095      -0.23225705       0.36012431
H        6.20825342       0.03868456      -1.84027394
