15
Properties=species:S:1:pos:R:3 -1519.272297366655=T 12.01562=T 12.46619=T -8.4423=T -6.67=T -9.322=T 0.9246=T -0.7627=T 0.281=T 8.3783=T 0.23562=T 3.9877493194=T 10.4649515398=T 0.303038214=T pbc="F F F"
C        1.01646907      -0.03568838       0.28174317
N        2.45753038       0.03433268       0.11359427
C        3.12303317      -1.21458671      -0.24018807
C        3.01932952       1.27481458      -0.18131873
N        2.41262131       2.41786451      -0.27183202
C        4.45598762       1.28832017      -0.35044658
C        5.65855074       1.33869532      -0.50904875
H        0.67469848       0.73292575       0.98960734
H        0.75900747      -1.01652334       0.70050342
H        0.46741374       0.09079780      -0.67069213
H        2.89873089      -1.98092386       0.51602504
H        4.20604046      -1.05723379      -0.26833763
H        2.79726523      -1.58964126      -1.22776603
H        1.39580150       2.30751736      -0.17532334
H        6.71834039       1.39872917      -0.65050995
