16
Properties=species:S:1:pos:R:3 -1573.465428099517=T 10.461781=T 11.32245=T -9.701=T -7.3989=T -9.594=T 1.3105=T -0.0015=T 1.274=T 9.06567=T -0.72338=T 6.6598211998=T 0.440832746=T pbc="F F F"
O        0.52459087       0.16799342      -0.42299002
C        1.89174239      -0.27130937      -0.43062802
C        2.77207532       0.94046990      -0.16226330
C        4.27582613       0.61450813      -0.18811814
C        4.71618132      -0.30860360       0.91266296
C        5.36419785      -1.46702763       0.74333067
H       -0.04052365      -0.61344823      -0.54106343
H        2.15704223      -0.71372939      -1.41124041
H        2.06364647      -1.04386672       0.34100366
H        2.49523623       1.36876685       0.81543137
H        2.54849521       1.70901370      -0.91874817
H        4.82875340       1.56552163      -0.09401146
H        4.55624541       0.18601666      -1.16525106
H        4.47899916       0.02124144       1.93220265
H        5.62025654      -1.83555363      -0.25369065
H        5.66480512      -2.08278316       1.59238334
