16
Properties=species:S:1:pos:R:3 -1501.2919200196254=T 10.119611=T 10.8527=T -8.5371=T -6.328=T -9.888=T 0.8808=T -0.0773=T 3.291=T 9.35485=T -3.01926=T 7.985504309=T 11.8652246266=T 0.100158894=T pbc="F F F"
C        2.21291999      -0.53172970      -1.37943526
N        2.32186990       0.05124329      -0.04237019
C        3.14486011       1.24998415      -0.01870640
C        2.49286480       2.56724700      -0.51078536
N        2.95049191       3.29059450       0.72738897
C        3.30663850       1.96384934       1.34148884
H        1.63747027      -1.46618500      -1.32944400
H        3.19018643      -0.74527633      -1.86275916
H        1.66225282       0.15982375      -2.03550373
H        2.72234113      -0.64050880       0.59706419
H        4.13365614       1.10631309      -0.50995254
H        1.39304486       2.49692139      -0.52947945
H        2.84805936       2.98911728      -1.46210532
H        3.81258355       3.80013731       0.51584132
H        4.29324134       1.91345915       1.82436793
H        2.53253888       1.65616958       2.06335015
