12
Properties=species:S:1:pos:R:3 -1333.3746809794284=T 13.32743=T 12.60669=T -8.4463=T -6.5073=T -8.158=T -0.1208=T -1.6769=T -0.114=T 7.6582=T 0.65392=T 3.4764806498=T 5.7912868712=T 0.602587297=T pbc="F F F"
C        0.92228748      -0.14977660       0.00000000
C        2.26437467      -0.00308597       0.00000000
C        2.94024022       1.23683964       0.00000000
C        3.55553340       2.29654719       0.00000000
C        4.29558920       3.49935721       0.00000000
C        3.75570665       4.73678799       0.00000000
H        0.47188843      -1.14195487       0.00000000
H        0.25642784       0.71365888       0.00000000
H        2.89867702      -0.89642268       0.00000000
H        5.38608810       3.39339278       0.00000000
H        2.67549338       4.88526337       0.00000000
H        4.39268361       5.62084305       0.00000000
