13
Properties=species:S:1:pos:R:3 -1363.9254811328492=T 12.422404=T 12.80469=T -9.2404=T -7.2333=T -9.639=T 0.2961=T -1.4231=T 0.073=T 9.30465=T 0.60534=T 4.3665141508=T 5.7185070892=T 0.793803934=T pbc="F F F"
C        1.93140396      -1.00637365      -0.20116339
N        2.97436847      -0.48091537       0.32942517
N        3.13472112       0.87035698      -0.07716434
C        4.21549453       1.37320298       0.39970966
C        4.59278465       2.79249605       0.06906078
C        4.94233598       3.56481326       1.25718044
C        5.23137107       4.18744932       2.25732810
H        1.70998623      -2.04757644       0.04584047
H        1.27240754      -0.44882514      -0.88120387
H        4.88368652       0.78491557       1.04627036
H        3.76214745       3.26310007      -0.47841747
H        5.46121518       2.77290317      -0.61510499
H        5.48253730       4.74258321       3.13798909
