16
Properties=species:S:1:pos:R:3 -1587.5934714804744=T 10.272056=T 11.09742=T -9.6734=T -7.4657=T -10.822=T 0.5691=T -0.4619=T 0.061=T 10.11759=T 0.53728=T 4.3509911036=T 9.2343284968=T 0.251631854=T pbc="F F F"
C        0.97295201      -1.28602054       1.44365237
C        1.80377311      -0.90233275       0.22329224
O        1.14871243      -1.44272959      -0.91633933
C        1.95390049       0.63178931       0.13639724
N        3.07921379       1.10964929      -0.68151623
C        3.23893424       0.87931879      -2.00872939
O        2.52656026       0.15154667      -2.70546709
H        1.48097670      -1.00842518       2.37817463
H        0.80869956      -2.37130479       1.44380619
H       -0.01161083      -0.79586305       1.41094318
H        2.82285760      -1.33104776       0.33079200
H        1.54676215      -1.01159507      -1.71030844
H        2.11460018       1.04292252       1.14238532
H        1.00977137       1.04613436      -0.25577688
H        3.74616776       1.74321378      -0.25007004
H        4.11151918       1.42455401      -2.43021577
