17
Properties=species:S:1:pos:R:3 -1693.0557921017921=T 10.550329=T 11.65223=T -9.9867=T -7.639=T -11.045=T 0.7206=T -1.1813=T -0.122=T 10.14582=T 0.77958=T 3.7220721186=T 12.8339024474=T 0.119589139=T pbc="F F F"
C        1.49834182      -0.01270534       1.03654987
C        2.63831162       0.73928916       0.32012497
C        2.23440190       1.25595231      -1.06824286
C        3.39215890       1.42864971      -2.05371669
O        4.47618784       2.21392349      -1.55941854
C        3.14441303       1.83084459       1.24213822
O        3.28794761       3.00754583       0.95308429
H        1.79145519      -0.32942543       2.04815875
H        1.22155840      -0.91110791       0.46929407
H        0.60522523       0.62343585       1.12487276
H        3.49244027       0.03841034       0.22456531
H        1.70313546       2.21546083      -0.94874104
H        1.51427906       0.55396266      -1.51956865
H        2.99377590       1.85673562      -2.99409471
H        3.82078846       0.44262257      -2.30260373
H        4.09868238       2.89550347      -0.96919058
H        3.37801693       1.48069225       2.28058858
