20
Properties=species:S:1:pos:R:3 -1942.865961432284=T 13.132936=T 14.22901=T -8.8329=T -6.7231=T -8.7=T 0.8759=T -0.1116=T 1.514=T 8.1112=T -0.81631=T 6.0580303516=T 0.385778269=T pbc="F F F"
C        1.44115913       0.08605113       1.32790576
C        2.04028690       0.54139018      -0.01305085
C        2.90837751       1.77767228       0.09378181
C        2.18220501       3.07150829       0.39350228
N        1.19525161       3.37381531      -0.66580253
C        4.24351109       1.69430298      -0.07376483
C        5.27527015       2.78178508      -0.00698404
H        0.84435729      -0.82795312       1.19415985
H        0.77575436       0.84944849       1.75721194
H        2.23160688      -0.12746895       2.06326626
H        1.21760767       0.75080194      -0.71568786
H        2.63723003      -0.27842908      -0.44237687
H        2.90815547       3.88498605       0.57147687
H        1.61642953       2.95263908       1.33388729
H        1.69190970       3.58917892      -1.53484172
H        0.67193463       4.21625705      -0.41616381
H        4.65007785       0.69681176      -0.28367021
H        4.84676828       3.78356361       0.12366697
H        5.88752239       2.79255961      -0.92310914
H        5.97390450       2.60731938       0.82816283
