14
Properties=species:S:1:pos:R:3 -1521.2818940347454=T 11.200298=T 11.08833=T -8.4416=T -6.5966=T -9.082=T 0.8884=T -0.6197=T -0.265=T 8.78625=T 0.94545=T 3.6600543214=T 4.6906507506=T 0.402512797=T pbc="F F F"
N        1.02823237       0.04600010       0.03441659
C        2.38837930      -0.01839174      -0.03149536
C        3.17772321      -1.13119562      -0.10571016
C        4.57925350      -0.75401457      -0.21538432
O        5.55847733      -1.49288976      -0.29221629
C        4.64842862       0.78938967      -0.21827078
C        3.19295488       1.26274701      -0.08249087
H        0.49627482      -0.79632762       0.22464275
H        0.58624703       0.92148321       0.29192028
H        2.84268515      -2.16721378      -0.08691350
H        5.12153421       1.12424035      -1.15206047
H        5.29174076       1.12448806       0.60700513
H        2.86312626       1.88541029      -0.92986424
H        3.02277255       1.85431441       0.83273122
