14
Properties=species:S:1:pos:R:3 -1512.6025493335676=T 9.874511=T 10.68379=T -9.1363=T -7.1352=T -10.461=T 0.8042=T -0.1095=T 0.626=T 9.51844=T 0.04423=T 4.395613665=T 11.4829509914=T 0.270896641=T pbc="F F F"
O        1.42239664       0.17618221       0.85845120
C        2.42320161      -0.02418330       0.17999420
N        2.70886672      -1.18182191      -0.51963516
C        4.06446253      -1.26979749      -1.04817168
C        4.59501404       0.15266161      -0.88629409
C        3.80697157       1.25397702      -1.53492685
C        3.57071294       0.92215045      -0.07249426
H        2.07303518      -1.97220985      -0.47664624
H        4.67749357      -1.97951750      -0.46560003
H        4.06700722      -1.59686848      -2.10141944
H        5.66367624       0.28671120      -0.72492921
H        4.33405661       2.18552611      -1.74171584
H        3.02312507       0.99598790      -2.25007989
H        3.81634004       1.64338203       0.70427729
