13
Properties=species:S:1:pos:R:3 -1406.4634970185564=T 12.414303=T 12.95752=T -7.9673=T -6.0771=T -8.205=T 0.7814=T -0.2051=T 0.203=T 7.67661=T 0.36881=T 4.2577908274=T 6.1817063866=T 0.383867486=T pbc="F F F"
C        0.94754987       0.00790644      -0.00843888
C        2.44936955       0.05068789      -0.00035950
C        3.19214691       1.20515105       0.00257138
S        4.90950221       0.89376479       0.01084421
C        4.61524959      -0.82855027       0.01045809
O        5.70711333      -1.64870704       0.01643946
C        3.27477066      -1.12426565       0.00423665
H        0.52171881       1.01956812      -0.00108110
H        0.55971930      -0.52879366       0.87101962
H        0.56875320      -0.51200998      -0.90188234
H        2.84235006       2.23354129       0.00029481
H        5.39203214      -2.57049850       0.01583467
H        2.88351436      -2.14233447       0.00321294
