15
Properties=species:S:1:pos:R:3 -1485.5389268834535=T 12.644614=T 12.20517=T -8.6603=T -6.8612=T -9.336=T 0.0324=T -1.6901=T -1.307=T 8.64116=T 1.74917=T 3.27199054=T 4.2298195858=T 0.521524763=T pbc="F F F"
C        1.26324118      -0.20986424      -0.72304358
C        2.43581387      -0.17179671       0.24947153
N        2.96252301       1.18218953       0.38747519
N        4.23521478       1.35888214       0.69134292
C        4.65539070       2.54391372       1.04573698
C        6.07284569       2.70963860       1.32408732
O        6.58689220       3.77079963       1.67224916
H        0.87473796      -1.23384262      -0.80242043
H        1.56783446       0.12613610      -1.72341899
H        0.43496486       0.42872310      -0.38097628
H        3.27122507      -0.78992368      -0.10453653
H        2.12953063      -0.56608205       1.23593951
H        2.29417257       1.93919670       0.57944241
H        3.99071286       3.41791959       1.13990947
H        6.67239014       1.77424020       1.19602134
