17
Properties=species:S:1:pos:R:3 -1594.9695512570727=T 11.562726=T 12.11985=T -9.2391=T -7.0281=T -10.432=T 1.3706=T -0.5351=T 0.331=T 10.37918=T 0.17965=T 5.3163832954=T 6.5894467462=T 0.427860398=T pbc="F F F"
C        0.76171495      -0.65568002       0.07610912
C        2.28176805      -0.43147249       0.01857333
N        2.98577617      -1.19713066      -1.02456650
C        2.64473376       1.04400180      -0.11849168
O        2.10002853       1.52189088      -1.37058734
N        2.43743246       2.87289614      -1.53264548
C        2.00074824       3.33564589      -2.64519029
H        0.30204562      -0.09488389       0.90505557
H        0.53863780      -1.72186493       0.22763843
H        0.28259054      -0.33349073      -0.85934303
H        2.71411975      -0.74234276       0.98678481
H        2.64643834      -0.89667098      -1.94316455
H        2.74603361      -2.18803551      -0.94156128
H        3.73826082       1.16526731      -0.13302793
H        2.21743554       1.63343581       0.70847836
H        2.21907578       4.38477683      -2.84431875
H        1.43958004       2.73423730      -3.37029279
