19
Properties=species:S:1:pos:R:3 -1811.7551886284682=T 12.566045=T 13.49978=T -9.0946=T -6.8701=T -9.56=T 0.886=T -0.0705=T 1.359=T 9.00579=T -0.77901=T 6.7017656636=T 0.433364119=T pbc="F F F"
N        0.92185663       2.55889525      -1.11830131
C        2.14220199       2.68659632      -0.30531069
C        3.25557751       1.80378649      -0.87008570
C        4.58771146       1.86344958      -0.08784639
N        5.59775395       0.89054457      -0.55826986
C        5.18838578       3.24486298      -0.14055318
C        5.36716889       4.05194593       0.90914695
H        0.20459573       3.19963380      -0.77123038
H        0.53363792       1.61705681      -1.01492869
H        1.99810680       2.43881164       0.76798892
H        2.46103506       3.74003963      -0.34084150
H        3.43174828       2.07905840      -1.92456854
H        2.91401686       0.75214859      -0.87429707
H        4.38367755       1.62207142       0.97099582
H        5.83223392       1.09726979      -1.53500450
H        5.18134043      -0.04535726      -0.56726850
H        5.48142132       3.59155459      -1.14086129
H        5.09053406       3.73980298       1.91961828
H        5.80027587       5.04723849       0.79803765
