13
Properties=species:S:1:pos:R:3 -1429.282581040417=T 10.802481=T 10.77491=T -8.8592=T -6.9204=T -9.826=T 0.1365=T -1.4375=T -0.39=T 9.27653=T 0.91437=T 3.6844795634=T 6.256147581=T 0.624292031=T pbc="F F F"
C        0.96169643      -0.02395947       0.02174383
C        2.46310366       0.00588579      -0.01053747
C        3.20484501       1.18111224      -0.07288874
C        4.59909814       1.07479003      -0.09650650
N        5.26578797      -0.08840506      -0.06264273
N        4.56246253      -1.23011993      -0.00265930
C        3.22479474      -1.17745197       0.02179721
H        0.53913432       0.98780731      -0.02609496
H        0.59859641      -0.50368881       0.94256325
H        0.56202347      -0.60319810      -0.82346832
H        2.71986130       2.15963167      -0.10304738
H        5.23156519       1.96526821      -0.14526581
H        2.73203082      -2.15404190       0.07061692
