17
Properties=species:S:1:pos:R:3 -1675.2597029799417=T 10.337893=T 11.68524=T -9.9017=T -7.6769=T -11.711=T 0.9269=T 0.0141=T 2.374=T 11.0556=T -2.05849=T 9.0474691962=T 11.0837160714=T 0.237518959=T pbc="F F F"
C        0.81194317      -0.46245702       0.56721496
C        1.92807183      -0.09032540      -0.41514337
C        2.90016002       0.96309460       0.08626384
C        3.73187426       0.66828829       1.32748761
O        2.97666000       0.79073178       2.53483957
C        3.40382398       1.98642092      -0.85222923
O        2.38080248       2.33003373       0.10233505
H        0.13783888      -1.20181603       0.11230928
H        0.21495653       0.42294189       0.82798330
H        1.21019638      -0.88311904       1.49915063
H        1.48416699       0.27943083      -1.35271836
H        2.51405664      -0.98833288      -0.67842503
H        4.60846236       1.34197865       1.34608142
H        4.10229339      -0.36803860       1.30050180
H        2.58074806       1.68226171       2.51322512
H        3.07187029       1.96000613      -1.89596944
H        4.38027474       2.45272045      -0.67935714
