17
Properties=species:S:1:pos:R:3 -1693.1379657925115=T 10.251352=T 11.35669=T -9.5194=T -7.377=T -11.566=T 0.9281=T -0.0112=T 2.658=T 11.33332=T -2.38602=T 9.242660356=T 10.556230033=T 0.115660536=T pbc="F F F"
C        0.94575488      -0.00329160       0.36765745
C        2.41186528      -0.07043943      -0.06259131
C        3.28451465       1.04495735       0.57410014
O        4.46513876       0.40581261       1.09314697
C        4.00056626      -0.87561002       1.54552622
C        3.13882917      -1.37401644       0.38506576
O        3.93762506      -1.94760023      -0.65610689
H        0.35105221      -0.78825474      -0.12083093
H        0.49856234       0.96672478       0.10347191
H        0.84368463      -0.12621391       1.45759879
H        2.47087464      -0.02904110      -1.16060663
H        2.73368157       1.53387369       1.40260219
H        3.61202973       1.81797297      -0.13394789
H        4.87282960      -1.51190589       1.74373430
H        3.40064139      -0.76960958       2.47311158
H        2.42990387      -2.16088933       0.68022590
H        4.65325596      -1.31045913      -0.84185754
