19
Properties=species:S:1:pos:R:3 -1867.0860122847728=T 11.583572=T 12.81702=T -9.2767=T -7.1735=T -11.131=T 0.9327=T 0.0349=T 2.881=T 10.52584=T -2.56424=T 8.852166449=T 10.9913960958=T 0.112236702=T pbc="F F F"
C        1.54667968      -0.52182198      -0.89355299
O        2.21648772       0.03026801       0.23394431
C        3.01992010       1.17945589      -0.05594591
C        4.20624334       0.84446488      -0.95793406
C        2.25730173       2.47652814      -0.48657446
C        3.07974691       3.25690429       0.57428545
C        3.43335712       1.90516384       1.24942267
H        0.86761755      -1.29254454      -0.50664784
H        2.24112556      -0.99439697      -1.61071961
H        0.94953394       0.23932742      -1.42898540
H        4.85948750       1.72095236      -1.07577980
H        3.88293465       0.53915645      -1.96374285
H        4.79821466       0.03003126      -0.51501461
H        1.19809364       2.40615926      -0.20042586
H        2.33334696       2.79503411      -1.53593584
H        3.96006680       3.74783304       0.13632081
H        2.53843250       3.99241128       1.18297031
H        4.46042042       1.75012661       1.60822957
H        2.72419921       1.65071663       2.04881611
