17
Properties=species:S:1:pos:R:3 -1640.715059033213=T 10.553306=T 11.56727=T -9.194=T -6.8955=T -10.564=T 0.9781=T 0.0067=T 3.117=T 9.95356=T -2.85509=T 8.6741969446=T 10.381471766=T 0.094343701=T pbc="F F F"
N        2.26520564      -0.41686082      -1.44719511
C        2.42286158       0.02998305      -0.05389326
C        3.19230802       1.33880550       0.01102943
C        2.54346367       2.63019086      -0.56145289
C        3.13646671       3.41350051       0.64046856
C        3.31689442       2.06130622       1.38247639
H        1.70178884      -1.26903362      -1.48183459
H        3.18018889      -0.66470038      -1.83403920
H        2.92065927      -0.71066862       0.60822591
H        1.41327220       0.19539946       0.36033571
H        4.19725649       1.19936723      -0.42690624
H        1.44563442       2.56673981      -0.50706526
H        2.82386114       2.94297886      -1.57565188
H        4.10664567       3.86680143       0.38947372
H        2.50680856       4.17735604       1.11690372
H        4.23580241       1.90872754       1.96573664
H        2.45091207       1.83635691       2.02520834
