19
Properties=species:S:1:pos:R:3 -1866.4095880371947=T 11.787701=T 13.26481=T -9.2534=T -7.1971=T -10.877=T 0.9591=T 0.067=T 3.051=T 10.47511=T -2.69309=T 8.6275286142=T 11.5520607878=T 0.154769579=T pbc="F F F"
C        2.99596157       3.61105450       2.38714746
C        4.29889424       3.07599913       1.82182325
O        3.99784691       1.91654034       1.03215897
C        5.11016667       1.39310699       0.32644631
C        6.15628913       0.70969337       1.18065411
C        4.74453404       0.81379223      -1.00888945
C        5.51656618       2.12235634      -0.93687263
H        3.18846832       4.49086319       3.01694493
H        2.49841892       2.84747154       3.00131691
H        2.31045479       3.90310251       1.57918724
H        4.99282570       2.81424050       2.64268972
H        4.79876983       3.83686851       1.19190029
H        6.92499535       0.24421396       0.54906501
H        5.69059264      -0.07674210       1.79317073
H        6.66444601       1.41762022       1.85226065
H        3.69355127       0.87562283      -1.29076384
H        5.26589682      -0.08493630      -1.34054279
H        6.56947485       2.12622696      -1.22286425
H        4.96550676       3.03007527      -1.18455262
