15
Properties=species:S:1:pos:R:3 -1620.4677510136937=T 14.207162=T 15.41718=T -9.138=T -7.05=T -8.676=T 0.9972=T -0.6369=T 1.029=T 8.30226=T -0.61348=T 3.2096503792=T 7.884579705=T 2.011140271=T pbc="F F F"
C        0.94816052      -0.00041314       0.01278197
C        2.47593919      -0.01098881       0.01232943
C        3.06602882       1.41651666       0.00027030
C        4.51732379       1.44444271      -0.00008254
C        5.74101557       1.44126691      -0.00010204
C        7.10036106       1.44001530      -0.00012421
C        8.32162117       1.43709043      -0.00011502
H        0.54725507      -1.02345325       0.02122054
H        0.55031719       0.50619716      -0.87974074
H        0.55097022       0.52058475       0.89727867
H        2.85476402      -0.55694598      -0.86528825
H        2.85538231      -0.54231796       0.89861338
H        2.69428377       1.97528350       0.87774604
H        2.69411085       1.96045195      -0.88640101
H        9.39161646       1.43435978      -0.00009652
