17
Properties=species:S:1:pos:R:3 -1809.4714014482079=T 12.500016=T 13.05421=T -7.9858=T -5.9952=T -7.958=T 0.8274=T -0.6019=T 0.765=T 7.47367=T -0.16328=T 4.4882808014=T 7.1552692558=T 0.550282163=T pbc="F F F"
C        0.88346388       0.04316241       0.10751096
C        2.42173066       0.03574715       0.05710239
C        3.01286166       1.20210597      -0.69402895
C        3.82483296       0.73583233      -1.67256785
C        3.82808756      -0.72846194      -1.64192286
C        3.01757556      -1.17081733      -0.64544039
C        2.72653038      -2.58135006      -0.25127124
H        0.51303528       0.94217674       0.61976600
H        0.49963889      -0.83440108       0.64755437
H        0.46821268       0.03225822      -0.91031791
H        2.80254168       0.05369952       1.09856033
H        2.79473050       2.24317009      -0.46026594
H        4.39525066       1.33983696      -2.37855379
H        4.40178370      -1.36163742      -2.32040689
H        3.25934024      -3.29173939      -0.89753659
H        1.64913162      -2.80856718      -0.31742678
H        3.02555208      -2.78334500       0.79063516
