17
Properties=species:S:1:pos:R:3 -1721.7434107252245=T 11.519166=T 12.61316=T -9.4862=T -7.223=T -9.689=T 1.3908=T -0.0942=T 1.185=T 9.14467=T -0.62402=T 6.672678548=T 0.45459254=T pbc="F F F"
C        2.22194477       2.68508193      -0.63318548
C        2.70351519       1.44543742      -0.48573690
C        3.46239918       0.95136731       0.71212302
C        4.87801538       0.48708656       0.36273905
C        5.92872367       1.56653234       0.02172568
O        6.83340827       1.07938393       1.05727523
C        5.82748422       0.13868723       1.53000747
H        1.68508182       2.98725734      -1.53345501
H        2.34420327       3.43864069       0.14931851
H        2.55947609       0.71966039      -1.29561741
H        2.91994187       0.10171528       1.16596567
H        3.51161126       1.74433975       1.47759768
H        4.83990131      -0.30948320      -0.39562559
H        5.59869908       2.60183057       0.22089462
H        6.39022548       1.51757466      -0.97710834
H        6.21674906      -0.89156312       1.56747848
H        5.44430010       0.42061092       2.52809333
