17
Properties=species:S:1:pos:R:3 -1709.5673977276824=T 11.867213=T 13.22969=T -9.7147=T -7.52=T -9.845=T 0.9432=T 0.0324=T 2.284=T 9.43539=T -1.89323=T 4.3577111448=T 10.4313637324=T 0.600841083=T pbc="F F F"
C        2.30877775       0.15753815       2.42385354
O        3.37668341       1.03347580       2.08810842
C        3.09731118       1.87826268       0.96300530
C        2.10101603       2.98724567       1.29142833
C        4.47237076       2.43075094       0.53610451
C        4.43152080       3.21062459      -0.69186060
C        4.38576013       3.85202786      -1.72175075
H        2.68488489      -0.51031730       3.20916965
H        1.99808885      -0.45078322       1.55327025
H        1.42551229       0.69498793       2.81219869
H        2.69955459       1.25526041       0.13594090
H        2.46781190       3.58674170       2.13794283
H        1.11459527       2.58112386       1.55216734
H        1.97374018       3.64771368       0.42280337
H        5.15866609       1.57765845       0.41517715
H        4.87322462       3.04431935       1.36075153
H        4.35147127       4.42149948      -2.62781047
