16
Properties=species:S:1:pos:R:3 -1644.8255912722814=T 13.325167=T 13.89881=T -8.6816=T -6.6568=T -8.407=T 0.711=T -0.7973=T 0.662=T 7.93487=T -0.06693=T 4.0774407918=T 11.2127607002=T 0.548604078=T pbc="F F F"
C        0.86721761       0.39776302       0.28644238
C        2.32911150       0.08852983       0.04800413
C        2.85349652      -1.14556872      -0.15337326
C        2.12663283      -2.45500068      -0.19093144
N        2.57457614      -3.24100609      -1.35538640
C        3.19557155       1.22338445       0.05839976
C        3.88228562       2.22904215       0.07182407
H        0.53373567       1.20149591      -0.38555554
H        0.71604104       0.75774809       1.31545365
H        0.22665052      -0.47858682       0.13387151
H        3.93199604      -1.22359262      -0.31789259
H        1.03237396      -2.30477016      -0.13543317
H        2.40646635      -3.03069049       0.71054520
H        2.25703923      -2.78873176      -2.21661543
H        2.14362074      -4.16789606      -1.33561914
H        4.50594469       3.09916995       0.08190626
