15
Properties=species:S:1:pos:R:3 -1515.5376896382402=T 10.109355=T 10.86085=T -8.7016=T -6.6325=T -9.908=T 1.0008=T 0.109=T 2.821=T 9.52029=T -2.68115=T 7.5430726666=T 10.482644342=T 0.142322249=T pbc="F F F"
C       -0.87643765       0.00004221      -1.25073528
C       -0.61663244       0.99650111      -0.09806055
N       -1.38004337      -0.00008671       0.76520907
C       -0.61664161      -0.99656829      -0.09819141
C        0.86539773      -0.74690858       0.30595574
N        1.78860932      -0.00000752      -0.56735318
C        0.86540376       0.74677526       0.30605663
H       -1.93304551       0.00006598      -1.53537330
H       -0.23865920       0.00009613      -2.14397539
H       -0.97747432       2.03258282      -0.11237149
H       -1.01943067      -0.00015049       1.73219793
H       -0.97749242      -2.03264573      -0.11263422
H        1.32576842      -1.36494369       1.07981058
H        1.47796793       0.00006416      -1.54349637
H        1.32577002       1.36470334       1.08000125
