12
Properties=species:S:1:pos:R:3 -1237.1963646536244=T 10.252738=T 10.83786=T -10.01=T -7.9195=T -10.344=T 1.3352=T -0.5232=T -0.034=T 10.34185=T 0.57905=T 4.2062746444=T 10.6503850014=T 0.429279436=T pbc="F F F"
O        0.81852369       0.94450604      -1.13594957
C        2.02776564       1.04582581      -1.00430119
N        2.61736637       1.80511302      -0.01116655
O        3.96647157       1.51401315       0.29088243
C        4.77331646       2.69836723       0.01282271
C        6.15656714       2.39343942       0.32638048
C        7.31817442       2.16236225       0.58447170
H        2.78795329       0.59346703      -1.67919557
H        2.05787465       1.98397417       0.82821779
H        4.41213019       3.54059337       0.62802967
H        4.66261085       2.97397151      -1.04941066
H        8.34395572       1.95510699       0.81353876
