17
Properties=species:S:1:pos:R:3 -1634.5110882420079=T 11.417718=T 11.93502=T -8.7184=T -6.7378=T -9.389=T 0.6658=T -0.2919=T 0.759=T 8.63393=T -0.11981=T 4.7237922084=T 5.6809393312=T 0.212554692=T pbc="F F F"
C        0.28766820       1.21954076      -0.27429598
N        1.62538896       1.77789365      -0.20972741
C        2.62053948       0.96386805      -0.23304646
N        3.92997978       1.35407583      -0.19533515
C        4.38452205       2.70376357       0.16483492
C        3.96722651       3.81931018      -0.80722978
O        2.65529952       4.30521169      -0.60073668
H       -0.28686821       1.51782252       0.61650895
H        0.27759950       0.11473820      -0.33843058
H       -0.24522896       1.62164266      -1.15031891
H        2.49172431      -0.13119990      -0.31150994
H        4.60513189       0.60474560      -0.09877699
H        5.48242542       2.65469187       0.20121101
H        4.01915279       2.97101049       1.17280685
H        4.12429057       3.45758650      -1.84452259
H        4.65001695       4.67065631      -0.64923608
H        2.08786125       3.49370202      -0.46867517
