21
Properties=species:S:1:pos:R:3 -2009.7158393787954=T 12.166597=T 13.51736=T -9.3412=T -7.2651=T -11.367=T 0.8965=T -0.0104=T 2.801=T 10.64499=T -2.45481=T 8.9717881418=T 10.2054612404=T 0.098883906=T pbc="F F F"
C        2.51293506      -0.79778396      -1.18539049
C        2.15832893       0.06508723       0.02668129
C        2.71254030       1.50980281      -0.00408249
C        2.18151747       2.29121175      -1.20905405
C        2.33496840       2.24017204       1.29335130
O        4.15406461       1.51888350      -0.20667360
C        4.94522119       0.90733466       0.80280199
H        2.16939974      -1.83166057      -1.03876396
H        3.59931710      -0.81940511      -1.35186244
H        2.04450969      -0.42377594      -2.10683555
H        2.51305693      -0.42826763       0.94707275
H        1.06296119       0.13262536       0.13458681
H        2.52081467       1.83661145      -2.14865387
H        2.55480287       3.32409740      -1.17910272
H        1.08267026       2.31467411      -1.20331553
H        2.65954324       1.69005085       2.18805522
H        1.24353818       2.35572766       1.35780344
H        2.78871357       3.24139426       1.31259914
H        5.98666742       0.99874171       0.46687523
H        4.71716185      -0.16606301       0.93553710
H        4.85164734       1.41054145       1.78169043
