15
Properties=species:S:1:pos:R:3 -1506.7526224105557=T 11.361492=T 12.1064=T -8.8428=T -6.738=T -9.565=T 0.8825=T -0.1234=T 2.27=T 9.22146=T -1.84286=T 4.3442586638=T 10.7031658416=T 0.199505264=T pbc="F F F"
N        0.85129606       0.03365375       0.19391556
C        2.29971049      -0.02158837       0.02292561
C        3.10581595       1.03706241       0.85000376
N        4.07701702       0.00284541       1.32678539
C        3.18549550      -1.07510121       0.80056399
C        2.63503991       0.00456961      -1.39692778
C        2.95063885      -0.00317605      -2.56953337
H        0.61047809      -0.18180027       1.16476469
H        0.39145660      -0.65994869      -0.40002686
H        2.50022587       1.42576257       1.68502129
H        3.52957293       1.87993701       0.28839489
H        4.92286827       0.04729246       0.75343680
H        3.67393749      -1.85459784       0.19955787
H        2.61445865      -1.54800886       1.61795952
H        3.21968832       0.00553806      -3.60607136
