17
Properties=species:S:1:pos:R:3 -1676.1941046655556=T 10.41423=T 11.91202=T -10.0355=T -7.8414=T -11.751=T 0.9646=T 0.0605=T 2.519=T 11.37928=T -2.20568=T 9.1910077884=T 10.8092978576=T 0.136760131=T pbc="F F F"
C        1.18494332      -0.22075364      -0.57580491
C        2.66731659      -0.24481212      -0.20549065
C        3.11427054       1.01343340       0.55480083
O        2.38759999       1.19089606       1.77223831
C        4.61241320       0.98413480       0.83144100
C        5.21607228       1.75101227       1.92947911
O        4.98549124       0.32459941       2.06665959
H        0.88447627      -1.15274216      -1.07426655
H        0.96105210       0.61273378      -1.25956897
H        0.56361328      -0.09370647       0.32093779
H        3.28463066      -0.34017599      -1.11553257
H        2.89268044      -1.12658061       0.41886323
H        2.89335160       1.90404568      -0.06167525
H        2.82260973       0.59600247       2.41741117
H        5.24724967       0.71883231      -0.02334317
H        4.57098485       2.38007532       2.54921156
H        6.27015425       2.03840548       1.86913949
