15
Properties=species:S:1:pos:R:3 -1568.962993861994=T 11.062422=T 12.38087=T -9.5505=T -7.3497=T -9.964=T 0.9566=T 0.0424=T 2.178=T 9.5818=T -1.83234=T 4.3725894648=T 10.7525122696=T 0.366755503=T pbc="F F F"
C        3.04659040      -1.03779277      -2.33879903
C        3.30002344      -0.56237920      -1.25084705
C        3.62809161       0.05229342       0.02768911
C        4.43639872       1.34212550      -0.14354265
C        3.70743283       2.60591457      -0.64295415
C        4.21060321       3.24552543       0.66384889
O        4.72449282       1.96546260       1.14393995
H        2.81423375      -1.47213532      -3.28963027
H        4.21504434      -0.64785931       0.64533785
H        2.70758238       0.27926283       0.59100900
H        5.37047791       1.12222773      -0.69123656
H        2.61762526       2.48826443      -0.70035581
H        4.07722904       3.04162447      -1.57804318
H        5.02429724       3.97911377       0.53581356
H        3.45073706       3.65808184       1.34544033
