13
Properties=species:S:1:pos:R:3 -1306.6411778542197=T 12.115964=T 12.66644=T -8.9522=T -6.8777=T -9.362=T 0.4354=T -1.2523=T -0.237=T 8.85193=T 0.79246=T 3.7172738604=T 9.2647546612=T 0.36618843=T pbc="F F F"
N        0.98061389      -0.03074846       0.04808182
C        2.45322504      -0.03429915      -0.02334227
C        2.99868896       1.31656291       0.01928109
C        3.44279300       2.45222210       0.01389912
C        4.04893818       3.72809684       0.02458919
N        3.32937941       4.80365773      -0.04610708
O        4.16158599       5.93979200      -0.01797768
H        0.64009367      -0.98876094      -0.06284747
H        0.60476664       0.50779777      -0.73656166
H        2.87065782      -0.53668045      -0.92157884
H        2.83459339      -0.59628029       0.84703565
H        5.14415251       3.79138640       0.09357920
H        3.51229152       6.66477354      -0.06983107
