10
Properties=species:S:1:pos:R:3 -1095.858175815978=T 8.529343=T 9.00142=T -10.6555=T -8.312=T -11.1=T -0.4897=T -2.3669=T -0.899=T 10.0206=T 1.48713=T 3.6149606132=T 11.105364027=T 0.331113886=T pbc="F F F"
O        1.61246045      -0.79076111      -0.71611658
C        2.35127450      -0.14219855       0.28420753
C        2.02379799       1.33975331       0.33300104
O        1.20087869       1.81294096      -0.44926165
C        2.71390502       2.13314018       1.31981215
C        3.31576969       2.76573534       2.16529944
H        1.06664690      -0.08055532      -1.12535450
H        3.44119993      -0.24708498       0.11597829
H        2.14508282      -0.57250978       1.28401826
H        3.83538400       3.34418996       2.90347602
