19
Properties=species:S:1:pos:R:3 -1935.4796493078675=T 11.9224=T 13.13134=T -10.5837=T -8.3843=T -11.841=T 0.967=T 0.0929=T 3.07=T 11.57821=T -2.76139=T 10.0432751538=T 10.9836221736=T 0.098700346=T pbc="F F F"
C        0.96434081       0.02494664      -0.02222858
C        2.48912759       0.02104191       0.05470460
C        3.10594896      -1.11859536       0.94044666
C        3.95364683      -0.26592124       1.90479908
C        4.59850966       0.77047024       0.93717875
C        3.12211596       1.23656986       0.77592452
C        2.96274477       0.87304214       2.28257136
H        0.59206324      -0.89743169      -0.49341665
H        0.59720276       0.87449658      -0.61861215
H        0.50573651       0.09269427       0.97610649
H        2.89109552      -0.03712216      -0.97099108
H        3.71523156      -1.82577953       0.35837766
H        2.32958453      -1.69277841       1.47004389
H        4.54290746      -0.79624853       2.66444654
H        5.12158376       0.39281040       0.04420116
H        5.21969122       1.50783735       1.46425912
H        2.86636477       2.23201236       0.38783485
H        3.42180503       1.62521473       2.93887877
H        1.96741904       0.59632044       2.66197502
