15
Properties=species:S:1:pos:R:3 -1500.9557684846009=T 10.425111=T 11.37391=T -9.4006=T -7.3654=T -10.515=T 0.82=T -0.1593=T 0.352=T 9.92526=T 0.21876=T 4.3477178732=T 9.4787049028=T 0.234442228=T pbc="F F F"
O        3.04180702      -0.66925661       1.30029448
C        2.44433095       0.13817637       0.59530488
N        3.02525637       1.00893949      -0.28126144
C        4.46575229       1.11837672      -0.47317714
C        4.98345581       2.47435762      -0.05150897
C        6.06062892       3.15887620      -0.81268671
N        4.65116331       3.58283204      -0.97866019
H        1.33422892       0.23785331       0.59819174
H        2.42858589       1.65593524      -0.79077537
H        4.71039831       0.94718256      -1.53373392
H        4.92325444       0.31831209       0.12536565
H        4.92451189       2.67799921       1.02239428
H        6.49414765       2.67070379      -1.68925158
H        6.74553945       3.80573902      -0.26011495
H        4.48991876       4.44281295      -0.44525076
