17
Properties=species:S:1:pos:R:3 -1629.610969561837=T 10.779267=T 11.67048=T -8.3255=T -6.3226=T -9.626=T 1.0334=T 0.1281=T 3.539=T 8.8292=T -3.56591=T 7.6571025908=T 11.3903334494=T 0.424791157=T pbc="F F F"
C        1.21239044       0.17154586       0.17532459
N        2.62765663       0.00229205      -0.14635770
C        2.80526570      -0.73157410      -1.39736306
C        3.31627739       1.26916457      -0.17635834
C        3.78927883       1.85197130       1.13034884
C        4.78876374       1.28544501       0.14355446
H        1.11405964       0.69406361       1.13689862
H        0.73351331      -0.81441202       0.26592278
H        0.65860463       0.75394635      -0.59456226
H        2.33441435      -1.72208925      -1.31472877
H        3.87748157      -0.87282430      -1.59152068
H        2.35934560      -0.21033969      -2.27374829
H        2.97380216       1.99177383      -0.93807074
H        3.59486149       1.26023746       2.02517500
H        3.73921456       2.93284454       1.26303474
H        5.43006540       1.97442386      -0.40639174
H        5.24110457       0.32713092       0.39983254
