14
Properties=species:S:1:pos:R:3 -1398.210303918469=T 12.00658=T 11.89482=T -8.7326=T -6.8393=T -9.294=T 0.3386=T -1.343=T -0.462=T 8.73679=T 1.0038=T 5.1063758086=T 0.619906317=T pbc="F F F"
O        2.11643575      -0.96259801       0.74872196
C        3.15652202      -0.43131567      -0.09129395
C        3.02207677       1.05453111      -0.13545084
C        4.03251758       1.91225150       0.11184846
C        3.89877731       3.34735501       0.01376916
N        4.92449308       4.09774373       0.25217338
O        4.58779838       5.45906573       0.10732831
H        2.09514832      -1.92613365       0.61898533
H        3.05567829      -0.83234388      -1.11964963
H        4.15887095      -0.71211059       0.28192080
H        2.03136566       1.43572880      -0.40519039
H        5.01984319       1.53778217       0.39904994
H        2.93067193       3.78931719      -0.26062145
H        5.43272077       5.89940657       0.31188892
