17
Properties=species:S:1:pos:R:3 -1682.1027466284972=T 10.457591=T 11.81781=T -9.4758=T -7.366=T -11.382=T 0.9203=T -0.1063=T 2.648=T 11.18339=T -2.39379=T 8.9246734618=T 12.410068705=T 0.11503217=T pbc="F F F"
C        0.95648943       0.05902506       0.14900175
C        2.44809966      -0.08814856      -0.04289559
O        3.22601269       0.95649548       0.63004112
C        4.17892153      -0.02755138       1.15119805
C        5.52535273       0.03519005       0.45348572
C        3.22080098      -1.17806773       0.73398300
O        3.70964654      -2.32025035       0.05939639
H        0.43181843      -0.78089142      -0.33029042
H        0.59504623       0.99201158      -0.30630457
H        0.70173113       0.07393724       1.21829376
H        2.69706900      -0.11393187      -1.12413030
H        4.30599522       0.10278101       2.23923471
H        5.42885207      -0.06226555      -0.63893153
H        6.19116460      -0.75901552       0.82214874
H        6.00115590       1.00491089       0.65372372
H        2.64246720      -1.56216355       1.58638330
H        4.24996665      -2.01868538      -0.69315785
