15
Properties=species:S:1:pos:R:3 -1670.2043195340468=T 12.61502=T 12.22038=T -8.2475=T -6.3836=T -8.166=T 0.3576=T -1.1072=T 0.299=T 7.64794=T 0.36556=T 4.475584635=T 5.7240368648=T 0.634691521=T pbc="F F F"
C        0.90072755      -1.25379283       0.44248765
C       -0.39670646      -1.50804750      -0.27718367
C       -1.41949658      -0.61478541      -0.22922116
C       -1.33721838       0.71480667       0.31861724
C       -0.21583605       1.50962668       0.31845385
C        1.06585340       1.14692234      -0.22964403
C        1.57000906      -0.11393897      -0.27763990
H        1.53531400      -2.14906092       0.45183740
H        0.69456185      -0.96263198       1.48825513
H       -0.51594807      -2.43797266      -0.83922747
H       -2.38219148      -0.90557011      -0.66119821
H       -2.27955339       1.18318224       0.61760669
H       -0.34572336       2.55394020       0.61749272
H        1.65872566       1.95895008      -0.66217086
H        2.48665225      -0.30949783      -0.84005538
