17
Properties=species:S:1:pos:R:3 -1640.6893282354147=T 10.605557=T 11.6609=T -9.1409=T -6.9263=T -10.539=T 0.9465=T 0.0129=T 3.121=T 9.8755=T -2.78851=T 8.5225992624=T 10.8689971166=T 0.155859396=T pbc="F F F"
C        1.10097302       0.18422259       0.14208303
C        2.60097208      -0.02205907      -0.12031397
N        2.90639659      -0.75002799      -1.36919730
C        3.33983363       1.30259164      -0.11127369
C        3.82735831       1.88786894       1.19405424
C        4.81570670       1.34591940       0.18566780
H        0.92845233       0.68879734       1.10524787
H        0.56729778      -0.77792863       0.16139695
H        0.65118197       0.80443238      -0.64983011
H        3.01430805      -0.63509352       0.70196151
H        2.57742696      -0.19820176      -2.16850223
H        2.36658304      -1.62007296      -1.39395306
H        2.97269450       2.02463570      -0.84927501
H        3.65854133       1.30583573       2.10218818
H        3.76674004       2.96759789       1.33380320
H        5.43591971       2.05472505      -0.36330105
H        5.30171394       0.39433728       0.40488366
