15
Properties=species:S:1:pos:R:3 -1518.9800359422911=T 10.553397=T 11.58025=T -8.3266=T -6.2357=T -8.344=T 1.288=T 0.1287=T 1.875=T 7.93906=T -1.47322=T 5.1905127082=T 11.346454804=T 0.157268311=T pbc="F F F"
C       -1.75778229       0.92337942       0.34670916
C       -1.36715508      -0.35162164      -0.35403300
O       -0.46397046      -1.30572539       0.29378422
C        0.77970506      -0.77860263      -0.21438955
C        2.06561864      -0.09999550       0.13786886
C        0.72040125       0.69541724       0.06817895
C       -0.61338856       0.97178293      -0.65459832
H       -2.71459205       1.35612037       0.04650069
H       -1.52330665       1.03362892       1.40653999
H       -2.05163899      -0.82667818      -1.05943841
H        0.80240875      -0.96634213      -1.29724991
H        2.48818069      -0.03435890       1.14192674
H        2.81013646      -0.14627717      -0.66229267
H        0.50547264       0.80439002       1.13745477
H       -0.71893941       1.50385263      -1.60044153
