14
Properties=species:S:1:pos:R:3 -1343.4714821562081=T 8.725731=T 9.32675=T -9.1854=T -6.8843=T -10.487=T 0.9741=T 0.0009=T 3.242=T 9.88415=T -3.04344=T 8.5858073252=T 14.5511085474=T 0.179190227=T pbc="F F F"
N        0.95171412       0.00994503       0.07778335
C        2.41377431       0.02654807       0.02402090
C        3.13020581       1.07674217       0.91088388
C        4.18219537      -0.00902475       1.26702836
C        3.15196107      -1.08127771       0.81823151
H        0.59540168      -0.78681478      -0.45909454
H        0.57986201       0.84535162      -0.38469507
H        2.82674424       0.07486728      -1.00454959
H        2.49766134       1.31950465       1.77769597
H        3.47627621       2.00668850       0.43812672
H        5.05163989       0.02860998       0.59513643
H        4.54078461      -0.04990662       2.30382537
H        3.51634305      -1.96007018       0.26777526
H        2.52516630      -1.41015325       1.66046146
