19
Properties=species:S:1:pos:R:3 -1872.8737802104538=T 11.684559=T 13.20193=T -9.8776=T -7.6018=T -11.123=T 0.9543=T 0.0433=T 2.956=T 10.74467=T -2.6469=T 9.0152576334=T 10.7007853104=T 0.15580241=T pbc="F F F"
C        0.81789912      -0.64448472      -0.18122324
C        2.31561477      -0.66726959      -0.38914552
C        2.90300551      -0.32953651      -1.73936751
C        3.10175755       0.62033707      -0.57878989
C        4.47328733       0.80907816       0.03833682
C        4.42108109       1.36520569       1.46199646
O        3.77875405       0.48557617       2.39219270
H        0.55151071      -0.50795297       0.87918857
H        0.35429401      -1.58368955      -0.51969183
H        0.35427756       0.17768004      -0.74686332
H        2.84515807      -1.45399248       0.15747524
H        2.21287770      -0.03182687      -2.53072695
H        3.76979426      -0.89708470      -2.08271427
H        2.49349068       1.53168948      -0.61717328
H        5.06690287       1.50255374      -0.58337856
H        5.01217346      -0.15341818       0.04722603
H        3.92258034       2.35535561       1.45588685
H        5.43963958       1.51329251       1.85035946
H        2.91583133       0.25298710       2.00541225
