15
Properties=species:S:1:pos:R:3 -1550.8804286082961=T 10.551433=T 11.48266=T -9.0243=T -7.0221=T -9.713=T 1.4903=T -0.0042=T 1.036=T 9.09906=T -0.36066=T 4.9246743256=T 11.7813728948=T 0.20380165=T pbc="F F F"
C        1.21350240      -0.14452390       0.02353178
C        2.65626661       0.23055768       0.04868150
N        3.14911700       1.28538024      -0.49465527
C        4.59728267       1.29107444      -0.22109101
C        4.88271159      -0.02990507       0.48896923
C        4.50046852      -1.28839058      -0.19959043
N        3.55426086      -0.65067869       0.76796433
H        1.08602835      -1.15210374      -0.40009624
H        0.64307334       0.58014047      -0.56626241
H        0.81969203      -0.18052605       1.04975004
H        5.15626047       1.42459137      -1.16131293
H        4.84148875       2.15034462       0.42456484
H        5.60223498      -0.06499122       1.30908816
H        4.91509520      -2.24101574       0.13583018
H        4.23705722      -1.23133383      -1.25989177
