12
Properties=species:S:1:pos:R:3 -1285.5126511291476=T 9.288655=T 9.52735=T -8.444=T -6.3775=T -8.13=T 0.6698=T -0.247=T 0.824=T 7.68914=T -0.14805=T 4.6104690044=T 9.2648786472=T 0.266477157=T pbc="F F F"
C        0.94901826      -0.01803704      -0.00799229
C        2.43842896       0.04437856      -0.00055186
C        3.32852480       1.10025925       0.00340425
N        4.63751228       0.65898977       0.00907061
C        4.55550936      -0.65884215       0.00887424
N        3.24792839      -1.08211151       0.00299884
H        0.53906718       0.99958328      -0.00073956
H        0.55056744      -0.54207128       0.87509284
H        0.55865325      -0.52625669      -0.90388571
H        3.08772375       2.16045461       0.00233828
H        5.39023698      -1.35457204       0.01283284
H        2.92650936      -2.04546476       0.00190753
