17
Properties=species:S:1:pos:R:3 -1707.3469376370306=T 11.444118=T 12.27768=T -8.2058=T -6.2484=T -9.092=T 0.779=T -0.1475=T 1.187=T 8.36241=T -0.50943=T 4.8301597978=T 11.338891658=T 0.166032171=T pbc="F F F"
C        1.02647732      -0.05735584       0.12897015
C        2.52724596       0.02345801       0.00932428
N        3.08714516       1.17085389      -0.18275004
C        4.54664542       1.20357670      -0.29752187
C        5.27098886       0.01304188       0.34199149
C        4.61480689      -1.28943166      -0.11310690
N        3.18520582      -1.19031208       0.15888319
H        0.59879166      -0.68231556      -0.67094853
H        0.61124833       0.95212241       0.04906078
H        0.72933684      -0.49705232       1.09292416
H        4.80910764       1.27261368      -1.36971438
H        4.89910524       2.14393699       0.15688637
H        6.33866427       0.01398187       0.07613104
H        5.20004840       0.08338116       1.43922665
H        5.02352949      -2.15182496       0.43527119
H        4.81150268      -1.45472223      -1.19005260
H        2.62588002      -2.03236194       0.07187500
