13
Properties=species:S:1:pos:R:3 -1398.300778160338=T 11.6874=T 12.12822=T -9.7538=T -7.6956=T -9.443=T 0.1597=T -1.4789=T -0.056=T 8.95138=T 0.54806=T 4.983431291=T 5.1801474786=T 0.304210179=T pbc="F F F"
N        1.18020873       0.36683914       1.22734652
C        2.16514920       0.38753875       0.59467213
C        3.33990397       0.40127212      -0.20171539
C        4.54364403       0.75619212       0.29118869
N        5.69000010       0.75777872      -0.52998483
C        6.94875669       0.40258612       0.18361587
C        6.68482306       1.81091872      -0.18228106
H        3.24702540       0.11063545      -1.25018437
H        4.64498064       1.05063773       1.34809727
H        7.63299691      -0.20503833      -0.41040060
H        6.86772691       0.12605181       1.23855976
H        6.42186822       2.50554610       0.62039215
H        7.17147613       2.25809154      -1.05028614
