13
Properties=species:S:1:pos:R:3 -1359.376830024638=T 12.487595=T 12.74196=T -8.0623=T -6.2885=T -9.263=T 0.9058=T -0.6158=T -0.13=T 8.50561=T 0.66129=T 4.8374005802=T 11.6052383832=T 0.197670935=T pbc="F F F"
C        0.94367614       0.00611712       0.02296296
C        2.44283859       0.04924290       0.00752248
C        3.23380889       1.17343956      -0.03578545
S        4.89807967       0.72760649      -0.00721926
N        4.60122587      -0.92858719       0.04368158
C        3.28549837      -1.11992853       0.05423658
N        2.77433817      -2.40961395       0.18124179
H        0.51543653       1.01611764       0.03156560
H        0.57234137      -0.52756445       0.91189148
H        0.54153308      -0.51271125      -0.86318171
H        2.91701603       2.21339837      -0.07148550
H        1.90138749      -2.57401091      -0.31464693
H        3.46906981      -3.12868580      -0.01061363
