17
Properties=species:S:1:pos:R:3 -1586.0927632854214=T 10.262891=T 11.32628=T -9.2591=T -6.8992=T -10.538=T 1.0222=T 0.0664=T 3.309=T 9.89597=T -3.14945=T 8.721051254=T 12.1126386896=T 0.134243066=T pbc="F F F"
C        1.35387092       1.88473335      -1.10039585
C        2.58109793       1.34153500      -0.39290806
O        3.66579249       2.24677199      -0.59047617
C        4.86192132       1.80913011       0.05577137
C        5.92549262       2.87470767      -0.13425111
N        5.54631164       4.10272001       0.57662699
H        0.50330643       1.20309327      -0.96073460
H        1.54064972       1.99032138      -2.17795128
H        1.07783958       2.86928800      -0.69801695
H        2.85124115       0.34181889      -0.79092282
H        2.38714740       1.22110913       0.69214960
H        5.20107634       0.84777225      -0.38016753
H        4.67395844       1.65800339       1.13724826
H        6.09026368       3.00708662      -1.22299484
H        6.86626620       2.49501323       0.29590722
H        4.66505364       4.44534364       0.18465959
H        6.24174051       4.83254209       0.40992620
