15
Properties=species:S:1:pos:R:3 -1456.2063833011969=T 9.259348=T 9.83333=T -8.4791=T -6.331=T -9.94=T 0.953=T -0.0015=T 3.147=T 9.31241=T -3.01004=T 7.9586117456=T 11.928321102=T 0.120945522=T pbc="F F F"
C        0.70739369       1.20770224      -0.21918417
C       -0.74650530       1.17760050       0.24963728
O       -1.41939383       0.00183190      -0.21651769
C       -0.74802141      -1.18031564       0.23536652
C        0.70584159      -1.20658443      -0.23384440
N        1.45726920      -0.00222996       0.15140203
H        0.72821264       1.29299730      -1.31928579
H        1.22354927       2.09005883       0.19075343
H       -1.31800600       2.03132380      -0.14481532
H       -0.78637587       1.21293445       1.35964837
H       -0.78789025      -1.22904807       1.34487393
H       -1.32058347      -2.02850397      -0.16936228
H        1.22086731      -2.09454329       0.16525257
H        0.72649286      -1.27850021      -1.33491014
H        1.59504958      -0.00849347       1.16747567
