13
Properties=species:S:1:pos:R:3 -1408.3392052296804=T 11.220985=T 10.96824=T -7.6747=T -5.6851=T -8.245=T 0.7644=T -0.8145=T 0.072=T 7.82268=T 0.45245=T 4.6863236392=T 0.577011464=T pbc="F F F"
C        1.17906207      -0.17819133      -0.60303433
C        2.48550726      -0.02419024      -0.30515693
C        3.17492330       1.23277239      -0.25170421
C        4.46100735       1.52631279       0.02992807
O        4.70359793       2.88229488      -0.03202132
C        3.43262278       3.47617607      -0.38822797
O        2.47861847       2.41598002      -0.52305723
H        0.72498654      -1.16771751      -0.62389692
H        0.54507912       0.67881789      -0.83006301
H        3.10646002      -0.89496463      -0.08000169
H        5.29909807       0.88934736       0.28683983
H        3.54099048       4.00893121      -1.34912338
H        3.11885660       4.16430111       0.41611910
