12
Properties=species:S:1:pos:R:3 -1342.555926179484=T 11.118079=T 10.84357=T -8.9851=T -7.0442=T -8.767=T -0.1025=T -1.6919=T -0.719=T 8.13524=T 1.23949=T 4.2226903908=T 0.43093451=T pbc="F F F"
C        2.79913046      -1.12439126       0.41803896
C        2.22250827       0.06252720       0.16056359
C        2.91253359       1.33393326       0.10877972
C        2.46457628       2.61246450      -0.13879016
C        3.63252398       3.40865021      -0.04540762
N        4.70988944       2.69711720       0.23404845
O        4.25532258       1.36796105       0.33404766
H        2.20561362      -2.03736270       0.43831926
H        3.86843118      -1.21030084       0.61271556
H        1.14852360       0.12146346      -0.03139399
H        1.44899405       2.92532428      -0.35452755
H        3.73877294       4.48393364      -0.17106388
