13
Properties=species:S:1:pos:R:3 -1348.720626527906=T 13.014583=T 12.92423=T -7.2353=T -5.3556=T -7.574=T 1.1042=T -0.1288=T 0.432=T 7.22239=T 0.19015=T 3.934819696=T 6.2222126128=T 0.336992371=T pbc="F F F"
N        0.79202593       0.05588192      -0.19238072
C        2.18587048      -0.00361402      -0.01806927
C        3.11915780       1.00317157       0.00086661
C        4.47058188       0.53194743       0.01600757
C        4.57563763      -0.83687409       0.03276615
N        5.70377529      -1.65734035       0.20748781
S        2.97517177      -1.58281240       0.00638228
H        0.47509420       1.01296235      -0.34235782
H        0.26694172      -0.35719319       0.57988965
H        2.84713636       2.05890767      -0.00818996
H        5.34003338       1.18968142       0.02666095
H        5.86206870      -2.30442444      -0.56648841
H        6.54626487      -1.10575390       0.36502517
