16
Properties=species:S:1:pos:R:3 -1670.7638421824588=T 12.39556=T 12.57592=T -8.5684=T -6.603=T -8.589=T 0.3011=T -1.245=T 0.347=T 8.0059=T 0.17701=T 5.0802147626=T 7.0517781416=T 0.454802021=T pbc="F F F"
C        1.05120737       0.01338140       0.31693548
C        2.36895755      -0.00124596       0.05739823
C        3.25642792       1.22539799      -0.12913164
N        4.43785297       0.76839331      -0.89025051
C        4.63787490      -0.62193601      -0.43073664
C        3.24782463      -1.17728759      -0.13822877
C        2.91115304      -2.47710952      -0.10461579
H        0.47413618      -0.90721779       0.42372513
H        0.50631592       0.95195566       0.43066629
H        3.59451242       1.59660163       0.85571385
H        2.75181253       2.05606664      -0.64020102
H        4.17024022       0.72931759      -1.87883511
H        5.19565041      -1.20886211      -1.17239690
H        5.23729972      -0.60257157       0.49786733
H        1.88846446      -2.80315631       0.09486721
H        3.65234976      -3.25929736      -0.27668714
