13
Properties=species:S:1:pos:R:3 -1399.4854964345407=T 12.275604=T 13.23868=T -7.9724=T -6.0795=T -8.252=T 0.6645=T -0.2385=T 0.617=T 7.72438=T 0.06496=T 3.8248937084=T 6.2137691662=T 0.384429976=T pbc="F F F"
C        0.96077783      -0.02218309      -0.00854027
C        2.45128110       0.06112224       0.00001420
C        3.29792148       1.15986908       0.00472908
C        4.62946027       0.66041317       0.01107970
Cl       6.08055627       1.62121244       0.01908603
C        4.58731415      -0.72024531       0.01025675
N        3.24977659      -1.06584353       0.00344693
H        0.53297793       0.98764029      -0.00053261
H        0.57125528      -0.55409563       0.87405087
H        0.58020297      -0.53630301      -0.90551330
H        2.99870804       2.20290676       0.00373273
H        5.38036419      -1.45801884       0.01429753
H        2.90320391      -2.01865456       0.00145235
