15
Properties=species:S:1:pos:R:3 -1542.0600233563528=T 10.921876=T 12.32019=T -9.5124=T -7.4115=T -10.503=T 0.8424=T -0.2574=T 1.425=T 9.76916=T -1.05214=T 5.4120880888=T 12.3145126948=T 0.280999232=T pbc="F F F"
N        1.66484345       0.46698167      -2.31287577
C        2.63976860       0.92308520      -1.86498165
C        3.86223687       1.51989884      -1.32430642
N        5.01508022       0.63037163      -1.49690185
C        6.23225528       1.21107477      -0.98136491
C        6.54743483       0.97093095       0.47691585
C        7.33807033       0.26303423      -0.59997980
H        3.71468633       1.69210955      -0.24565136
H        3.98343786       2.52044833      -1.79201222
H        5.12350646       0.39595341      -2.48721113
H        6.53946144       2.18652834      -1.38826582
H        5.83184244       0.36845409       1.03701138
H        7.02922965       1.77168714       1.03773036
H        8.36497524       0.57656105      -0.78635592
H        7.13869100      -0.79885921      -0.74240072
