20
Properties=species:S:1:pos:R:3 -1937.1733022461322=T 12.893456=T 13.79382=T -8.4969=T -6.4724=T -9.162=T 0.8735=T -0.036=T 1.419=T 8.53579=T -0.7707=T 6.3691980158=T 0.378346403=T pbc="F F F"
C        3.15094951      -1.00313771      -0.53613674
N        2.63724899       0.01664966       0.37779427
C        3.34508505       1.30764202       0.32003037
C        2.63337299       2.30103775       1.24593045
C        4.84471047       1.22196354       0.60645929
C        5.26945234       0.73055579       1.96634296
C        5.74299633       1.54628143      -0.33619718
H        2.57214956      -1.92758666      -0.40207290
H        4.22723005      -1.24061902      -0.41956420
H        2.99953291      -0.66521628      -1.57352377
H        2.65117988      -0.33637723       1.33857185
H        3.23662611       1.66940885      -0.71856873
H        2.65098534       1.95777193       2.29207211
H        1.58242758       2.40158530       0.94380376
H        3.11528365       3.28758713       1.20631922
H        4.87210973      -0.27713822       2.17281318
H        4.89947718       1.38760546       2.76929532
H        6.36312793       0.68074848       2.04575383
H        5.42913084       1.89205926      -1.32419119
H        6.81809354       1.48348852      -0.15146190
