16
Properties=species:S:1:pos:R:3 -1558.8553594162454=T 10.295384=T 11.1643=T -9.1951=T -7.1826=T -10.916=T 0.714=T -0.288=T 0.119=T 9.99111=T 0.54795=T 4.3373898394=T 11.6327136808=T 0.106718319=T pbc="F F F"
C        0.85212589      -0.47966221       0.06607846
C        2.27063817       0.08319538      -0.11913117
C        3.06736029      -0.72018498      -1.15941558
C        2.18735617       1.53762738      -0.55395172
O        1.65795531       1.93433991      -1.60381904
N        2.68510375       2.46255005       0.32440341
O        2.74336327       3.77848327      -0.16707485
H        0.29819746       0.07340693       0.83704589
H        0.90018626      -1.53581877       0.36617340
H        0.29206718      -0.40912426      -0.87644073
H        2.79632348       0.04022876       0.85144745
H        2.57867082      -0.65617940      -2.14128718
H        3.11837087      -1.77711936      -0.86281659
H        4.09494260      -0.34408500      -1.26479003
H        3.48705004       2.25243669       0.91625208
H        2.29340845       3.63725560      -1.04728381
