17
Properties=species:S:1:pos:R:3 -1749.0871648296036=T 11.494344=T 12.37194=T -9.0409=T -6.8294=T -8.825=T 0.9411=T -0.0031=T 1.387=T 8.2613=T -0.71554=T 6.0172761534=T 0.352345569=T pbc="F F F"
C        0.98349631      -0.06015014       0.11381611
C        2.47242925       0.06703831      -0.03297294
C        3.14251565       1.22259354       0.10418394
C        4.64196372       1.29516441       0.00499788
C        5.24440172      -0.10336839       0.11974022
O        4.57186837      -1.02515958      -0.74374380
C        3.21464226      -1.20949858      -0.35015456
H        0.72109632      -0.78985255       0.89793930
H        0.51872206      -0.41988210      -0.81893442
H        0.52355469       0.90106984       0.37954578
H        2.59216796       2.14757135       0.30367901
H        4.94536167       1.76248428      -0.94867870
H        5.04782286       1.93551894       0.80671737
H        6.29973983      -0.12005401      -0.18633633
H        5.18069749      -0.45549029       1.16938962
H        3.15757034      -1.89552987       0.52479707
H        2.72819950      -1.72742516      -1.19355556
