21
Properties=species:S:1:pos:R:3 -2068.3248547196954=T 12.818148=T 14.45367=T -10.2375=T -7.9784=T -11.474=T 0.9484=T 0.0827=T 3.025=T 11.21789=T -2.77199=T 9.7634759476=T 10.4757135246=T 0.148686997=T pbc="F F F"
C        2.19195203      -0.55236950      -1.46450787
C        2.40670294       0.00126074      -0.05359536
C        3.27137034       1.25514548      -0.02325133
C        2.69867164       2.57731934      -0.61657911
C        3.30241456       3.35793580       0.59045521
C        4.62097066       4.06144827       0.28451437
C        3.46234293       1.99576167       1.33077213
H        1.55587344      -1.44924296      -1.45434846
H        3.15000636      -0.82722414      -1.93261680
H        1.70767338       0.19213040      -2.11479890
H        2.87096577      -0.77257750       0.58280803
H        1.42972615       0.23228248       0.40811847
H        4.25179126       1.03073638      -0.47719494
H        1.59721255       2.57934253      -0.59855789
H        3.03399506       2.87821426      -1.62041135
H        2.61123207       4.06645861       1.07271191
H        5.33778621       3.37939497      -0.19956982
H        5.09125086       4.43948352       1.20538176
H        4.46735592       4.91706835      -0.39101873
H        4.40522146       1.83081176       1.87377488
H        2.62336440       1.79794956       2.01606378
