13
Properties=species:S:1:pos:R:3 -1341.5690358892118=T 11.326083=T 12.26031=T -9.2504=T -7.2919=T -9.586=T 0.6846=T -0.9806=T 0.178=T 8.94118=T 0.32305=T 3.9332326752=T 10.4888560406=T 0.297365182=T pbc="F F F"
N        1.03227656       0.05570290       0.04094196
C        2.41917989      -0.07324162      -0.05908609
N        3.10167876      -1.15809696      -0.21932540
C        3.11591673       1.18979455      -0.03019380
C        3.67633701       2.26862312       0.03040212
C        4.35586991       3.55960265       0.04582346
O        3.54138692       4.64424902      -0.42049582
H        0.69047636       0.90684834       0.48035618
H        0.52426637      -0.78447179       0.30583820
H        2.48396532      -1.98269626      -0.20748730
H        5.29359221       3.48111825      -0.53549146
H        4.63767837       3.82138605       1.07762720
H        3.20811559       4.39765175      -1.30222925
