19
Properties=species:S:1:pos:R:3 -1835.2358313876064=T 12.240299=T 13.29423=T -8.483=T -6.6013=T -9.457=T 0.7272=T -0.2055=T 1.16=T 8.62107=T -0.53429=T 5.025958489=T 12.3228693512=T 0.218364533=T pbc="F F F"
C        0.84153568      -0.35932360      -0.12450268
C        2.36444859      -0.17065425      -0.19530097
C        3.02394991      -1.18897650      -1.12649058
N        2.74162266       1.17844559      -0.61377349
C        2.65768140       2.29933608       0.19784192
C        2.89626493       3.59914036      -0.53621490
N        2.43646589       2.33316692       1.47081245
H        0.37829348       0.41519350       0.50156678
H        0.58758347      -1.34225070       0.29860018
H        0.39884976      -0.29673979      -1.13034988
H        2.78641722      -0.31488932       0.81480551
H        2.65961806      -1.06786932      -2.15962478
H        2.78254333      -2.21316315      -0.81096546
H        4.11622721      -1.07234661      -1.12842072
H        2.74777314       1.34725076      -1.61654847
H        3.86173300       3.58516741      -1.06344019
H        2.89276938       4.41967336       0.18780871
H        2.10645931       3.77925247      -1.28210553
H        2.27946358       1.39049678       1.85226210
