15
Properties=species:S:1:pos:R:3 -1506.9004209739885=T 9.641576=T 10.38575=T -8.8044=T -6.6758=T -10.044=T 0.9489=T -0.0062=T 3.279=T 9.37355=T -3.11445=T 8.1925485304=T 11.2366528024=T 0.212378766=T pbc="F F F"
C        0.79102153       1.38419090      -0.58544166
C       -0.32478344       0.96055001       0.34032908
C       -1.36287674      -0.02738634      -0.21797751
N       -0.78069091      -1.38802489      -0.12883796
C        0.68617406      -1.18740367      -0.20773395
C        0.99483236       0.21343218       0.34696621
H        0.67238175       1.16521960      -1.65091718
H        1.31737310       2.31574173      -0.37073382
H       -0.60294497       1.61605374       1.16697623
H       -2.31366335       0.01313240       0.33143119
H       -1.58408804       0.19965517      -1.27543787
H       -0.98529669      -1.74118737       0.81032838
H        1.20610112      -1.97954786       0.34875503
H        1.00253267      -1.26458014      -1.26258636
H        1.69386755       0.31575457       1.17840020
