15
Properties=species:S:1:pos:R:3 -1555.6628441785895=T 10.638699=T 11.48963=T -9.7607=T -7.6365=T -9.949=T 0.5538=T -1.2062=T -0.185=T 9.80413=T 0.89214=T 3.7619708134=T 6.7765044244=T 0.290581449=T pbc="F F F"
O        0.50657020       1.31804592      -0.19973138
C        1.83759999       1.40855537      -0.63731860
C        2.77210547       1.82764318       0.47906820
O        2.32000917       2.01714287       1.60223176
C        4.24370368       2.02776890       0.14342346
C        4.58286212       3.49691916       0.14157770
C        5.07318172       4.15886325      -0.91125211
H        0.54930691       1.54985040       0.75654432
H        1.94278759       2.14037599      -1.46331516
H        2.19721249       0.43722225      -1.03410195
H        4.48562303       1.57528858      -0.82994028
H        4.82255730       1.51185454       0.92694727
H        4.38809135       4.02313574       1.08090964
H        5.27440248       3.65918071      -1.86219044
H        5.29809648       5.22438314      -0.85323243
