15
Properties=species:S:1:pos:R:3 -1495.7478453043911=T 11.595734=T 11.48114=T -8.2854=T -6.4113=T -9.077=T 1.0265=T -0.6011=T 0.056=T 8.50735=T 0.62439=T 4.2376431024=T 4.979463739=T 0.337672012=T pbc="F F F"
C        3.21936930      -1.16611825       0.70190455
C        2.58818814       0.12562513       0.22735087
O        1.37785739       0.22931753       0.00258683
N        3.42480517       1.21745917       0.01571719
N        2.83069436       2.38371018      -0.53966359
C        4.81034300       1.23092943       0.18805798
C        5.61862120       2.25679877      -0.12775199
H        3.71116151      -1.04857451       1.67778084
H        3.96459810      -1.53997662      -0.01388851
H        2.41546157      -1.90251117       0.79624456
H        2.76151125       3.07103844       0.22356186
H        1.86420101       2.07962324      -0.73165099
H        5.20154747       0.32318200       0.64309269
H        5.24174123       3.16358447      -0.59583831
H        6.68560930       2.16890218       0.06341602
