15
Properties=species:S:1:pos:R:3 -1599.1717232851415=T 11.300519=T 12.15994=T -9.5734=T -7.4444=T -9.733=T 0.7943=T -1.0281=T -0.05=T 9.89521=T 0.70272=T 3.699866226=T 6.5420221012=T 0.436565743=T pbc="F F F"
C        0.64934959       1.01496000       0.00747466
C        1.86735430       0.58736672      -0.34522659
C        3.15339412       1.30749643      -0.16780560
C        3.66554585       2.25772540      -1.20674342
C        3.19877747       2.80861682       0.13760400
C        4.22727539       3.27180846       1.09864965
O        5.36873062       2.83697104       1.15546954
H       -0.23573880       0.40834231      -0.18573612
H        0.49176499       1.97454416       0.50440685
H        1.96498927      -0.39596709      -0.82012527
H        3.94200708       0.74393415       0.34156210
H        3.02395002       2.47446920      -2.06084907
H        4.74277931       2.28761356      -1.37617745
H        2.24932699       3.34437967       0.15864232
H        3.88952379       4.07226916       1.80455440
