15
Properties=species:S:1:pos:R:3 -1500.6039908593864=T 11.56246=T 11.96359=T -9.0703=T -7.0876=T -9.946=T 0.5391=T -1.1161=T -0.336=T 9.41443=T 0.9305=T 4.1011841108=T 5.422465717=T 0.44761829=T pbc="F F F"
C        0.83733630      -0.25500463      -0.08448258
C        2.31472129      -0.17166947       0.10017529
C        3.03694005       0.96018906       0.10936428
C        4.50654576       0.93055787       0.31051505
O        5.17412881      -0.09248548       0.50008758
N        5.10148058       2.18072585       0.28618223
N        6.51447064       2.26772015       0.21224710
H        0.58945638      -0.88601263      -0.95315152
H        0.37866372       0.73261487      -0.22847225
H        0.36406666      -0.73601935       0.78676113
H        2.86470037      -1.10847789       0.24293814
H        2.55049235       1.93301172      -0.02167625
H        4.62243953       2.92169050      -0.22291963
H        6.82347615       1.29970508       0.03633543
H        6.85231141       2.48677435       1.15672600
