13
Properties=species:S:1:pos:R:3 -1345.3802164102883=T 9.734231=T 9.93643=T -9.3884=T -7.3989=T -9.72=T 0.208=T -1.5916=T 0.074=T 9.4008=T 0.51382=T 4.3939274554=T 8.6684439942=T 0.224319294=T pbc="F F F"
O        1.07580315      -0.10880695       0.60631911
C        2.40138154       0.05048833       0.10309363
C        2.60755551       1.28199336      -0.78447245
C        3.96857282       1.12236530      -1.41720940
N        4.48037340      -0.01864500      -1.73142892
N        3.61139460      -1.14293889      -1.68065459
C        2.68987958      -1.13476402      -0.78523161
H        0.90686804       0.60331617       1.24665912
H        3.14177887       0.07090039       0.93040265
H        2.56442300       2.21820332      -0.21051217
H        1.81178019       1.31798484      -1.55094483
H        4.61467449       1.99428795      -1.56448518
H        2.02904481      -2.00656481      -0.72138535
