16
Properties=species:S:1:pos:R:3 -1666.9202907562928=T 11.392464=T 12.22236=T -8.3264=T -6.2732=T -8.482=T 1.1158=T -0.0265=T 1.403=T 8.02041=T -0.73148=T 5.6361307908=T 0.259656892=T pbc="F F F"
C        0.96178075      -0.07864039       0.32483446
C        2.39500805       0.10773427      -0.05340002
C        3.13750654       1.22812869       0.00111199
C        4.54296170       0.94886564      -0.39685583
C        5.26661754      -0.03338647       0.46908014
N        4.61987640      -0.49747517      -0.77102096
C        3.25017293      -1.03449544      -0.57045836
H        0.85966712      -0.78742565       1.16304484
H        0.38279704      -0.50077204      -0.51338385
H        0.49408035       0.86896415       0.62278954
H        2.78308827       2.21177748       0.31158991
H        5.10011851       1.65738713      -1.01665267
H        6.35811861      -0.08942655       0.44813827
H        4.79636538      -0.27222399       1.42901369
H        3.27533813      -1.89378637       0.12242359
H        2.86812267      -1.41550530      -1.53536474
