12
Properties=species:S:1:pos:R:3 -1296.965744216727=T 10.10857=T 10.69509=T -9.4844=T -7.4509=T -10.092=T 1.1653=T -0.6426=T 0.23=T 9.689=T 0.35266=T 4.3492181038=T 11.0099939958=T 0.407179638=T pbc="F F F"
C        0.95855842       0.00242846      -0.07511896
C        2.17150011      -0.00043621      -0.04316197
C        3.63083249      -0.00268074       0.01127492
C        4.26722757      -1.25734181       0.65646421
O        4.79202392      -0.81423460       1.95051837
N        4.76665384       0.58170126       2.00213732
C        4.17053173       1.05227326       0.96855207
H       -0.11199411       0.00427002      -0.10482754
H        4.02591964       0.15833050      -1.00517548
H        5.11279572      -1.63140279       0.06070607
H        3.54590424      -2.06119090       0.84342161
H        4.03566643       2.12691355       0.86168940
