15
Properties=species:S:1:pos:R:3 -1553.3838954134646=T 11.130058=T 11.64991=T -8.5926=T -6.5755=T -9.378=T 1.0469=T -0.3278=T 0.882=T 8.75433=T -0.26702=T 5.1419101962=T 6.6967194334=T 0.402732963=T pbc="F F F"
C        1.69158535      -0.64495769      -1.02046951
C        1.98138993       0.23898095      -0.06055647
C        3.10241320       1.24305484      -0.09853548
C        3.65726083       1.64438335      -1.49581034
N        3.96567344       3.08878719      -1.42489233
C        3.40992846       3.50385739      -0.34182342
N        2.70214313       2.57749387       0.42015071
H        0.88278949      -1.36565066      -0.89563958
H        2.24575575      -0.68618689      -1.96040298
H        1.39544116       0.22766674       0.86532353
H        3.93093518       0.85003799       0.52702954
H        2.89295781       1.48895481      -2.27704106
H        4.55013570       1.07184417      -1.78043560
H        3.42534204       4.55027795      -0.02468435
H        2.69297854       2.71028600       1.43010734
