12
Properties=species:S:1:pos:R:3 -1271.908949343122=T 11.097975=T 11.17147=T -8.3021=T -6.2452=T -8.484=T 0.9548=T -0.6307=T 0.474=T 8.12239=T 0.03721=T 4.0692577158=T 5.7788262782=T 0.384108507=T pbc="F F F"
C        0.98584293       0.04293255      -0.57783880
O        2.38309204      -0.04898544      -0.26617119
C        3.04441667       1.13624424      -0.25550184
C        4.37100792       1.19906405       0.00077764
C        5.08840135       2.41434889       0.02546313
C        5.74397902       3.44175421       0.05889871
H        0.59218440      -0.97791802      -0.52609853
H        0.83462250       0.44302976      -1.59289183
H        0.45961231       0.67576012       0.15427468
H        2.45112393       2.03332147      -0.46127665
H        4.91287060       0.26994564       0.19836270
H        6.30969634       4.34993251       0.08425199
