17
Properties=species:S:1:pos:R:3 -1734.319842747757=T 12.148236=T 12.88509=T -8.6985=T -6.6422=T -9.15=T 0.9194=T 0.0179=T 1.2=T 8.64023=T -0.87822=T 6.0993300882=T 0.31659864=T pbc="F F F"
C        1.68236250      -0.96382622      -1.04054062
C        3.15915202      -0.96420584      -0.79556393
C        3.95259551      -2.04723403      -0.80129085
O        3.59630369       0.32471801      -0.52869346
C        4.97409654       0.58487924      -0.57249501
C        5.54437620       0.66985041      -1.95574803
C        5.61837749       0.83719716       0.57125151
H        1.43770712      -0.36946273      -1.93361734
H        1.15546888      -0.50570051      -0.19034842
H        1.31135049      -1.98546118      -1.17857247
H        3.52348146      -3.02395174      -1.01332184
H        5.01694120      -1.98556877      -0.57948929
H        5.04431555       1.47443858      -2.51662405
H        5.38135330      -0.26636698      -2.50875008
H        6.62025297       0.87871154      -1.92226056
H        5.10309638       0.76822186       1.52835592
H        6.66791869       1.12798120       0.56060850
