17
Properties=species:S:1:pos:R:3 -1767.1939749520247=T 13.054692=T 14.20243=T -9.6447=T -7.422=T -9.454=T 1.4961=T -0.0365=T 1.244=T 8.95348=T -0.65743=T 4.3525781244=T 6.5967123258=T 0.433269777=T pbc="F F F"
C        0.84968446      -0.00719752       0.23480986
C        2.30733607       0.17334566      -0.21448663
C        2.64118645      -0.74177882      -1.42845863
C        2.49563397      -2.16409395      -1.14785084
C        2.38377284      -3.34601324      -0.89196388
C        2.58984528       1.60762140      -0.57200034
C        3.49543672       2.38888863       0.02640207
H        0.63959384       0.60244356       1.12404470
H        0.64498333      -1.06006497       0.47412828
H        0.15321923       0.30279992      -0.56047747
H        2.97457957      -0.11934869       0.61381186
H        3.67485281      -0.54139019      -1.75409802
H        1.98848750      -0.46813962      -2.27645489
H        2.28448725      -4.39016948      -0.67649806
H        1.98323796       2.02139536      -1.38847498
H        4.11625357       2.01596496       0.84551154
H        3.64571916       3.42617699      -0.27654456
