9
Properties=species:S:1:pos:R:3 -966.4948142306131=T 8.445567=T 8.15714=T -8.6984=T -6.6334=T -8.864=T 1.0155=T -0.7088=T 0.008=T 8.35695=T 0.47252=T 4.79267883=T 12.1058938512=T 0.442328884=T pbc="F F F"
N        0.97137007      -0.10519426       0.00000000
C        2.32938140      -0.01165455       0.00000000
C        3.05221618       1.14268053       0.00000000
C        4.46483799       1.13265063       0.00000000
N        5.63796087       1.15470007       0.00000000
H        0.51470271      -1.00607967       0.00000000
H        0.38515646       0.72127071       0.00000000
H        2.85046150      -0.97093389       0.00000000
H        2.56181282       2.11884044       0.00000000
