19
Properties=species:S:1:pos:R:3 -1875.278294465018=T 12.467825=T 13.78938=T -9.1767=T -6.9591=T -9.13=T 0.9897=T -0.0456=T 1.326=T 8.60879=T -0.70593=T 6.283734466=T 0.40799823=T pbc="F F F"
C        0.62630798       0.47159194      -0.60025339
C        2.10924551       0.61580202      -0.75978418
C        2.92872320       1.20863392       0.11970988
C        4.41839562       1.34237171      -0.02471143
C        4.92583309       2.79704874       0.03112759
C        4.47299946       3.64110652      -1.15832622
O        5.00779100       4.97184831      -1.13848305
H        0.08642993       0.95206304      -1.43226505
H        0.27553538       0.92040196       0.33976871
H        0.32596702      -0.58871615      -0.60563087
H        2.54321160       0.19337775      -1.67516269
H        2.49546928       1.63249616       1.03647801
H        4.74423006       0.87042190      -0.96721661
H        4.91013369       0.78129115       0.78930661
H        6.02660863       2.80478582       0.06795075
H        4.57424233       3.26870071       0.96721726
H        3.36953861       3.65803150      -1.21869056
H        4.84267408       3.19642857      -2.09588975
H        4.65275354       5.42021442      -0.35099501
