15
Properties=species:S:1:pos:R:3 -1554.710268060506=T 10.709565=T 11.29935=T -9.6754=T -7.5799=T -10.242=T -0.2396=T -2.0202=T -0.995=T 9.89374=T 1.56755=T 3.4182816214=T 5.3040838842=T 0.449549811=T pbc="F F F"
C        1.11856569      -0.41098853       0.36136386
C        2.42578558       0.17219654      -0.17240132
O        2.93923562      -0.76198710      -1.13311673
C        2.20843701       1.55300066      -0.76696464
C        2.09601801       1.79291027      -2.08674721
C        2.11696731       2.70771323       0.15602960
O        2.22018015       2.63850985       1.37299212
H        0.68391811       0.25397375       1.11816212
H        1.31142835      -1.39043117       0.81812294
H        0.40091156      -0.53825189      -0.46126876
H        3.12820141       0.28294368       0.67406136
H        3.84678045      -0.48990061      -1.35636830
H        2.16533838       0.98714530      -2.81868845
H        1.93201444       2.80911019      -2.45270255
H        1.94957794       3.69187584      -0.35373404
