16
Properties=species:S:1:pos:R:3 -1632.6165883428453=T 10.825319=T 11.81346=T -8.8273=T -6.8933=T -9.985=T 0.7381=T -0.2016=T 0.714=T 9.40767=T 0.00257999999999=T 4.430205759=T 11.9368637374=T 0.264494926=T pbc="F F F"
C        3.27923298      -1.15724036      -0.75339271
C        2.56741361       0.03900962      -0.14134018
O        1.49281167      -0.03968481       0.46149053
N        3.20221377       1.23464981      -0.30880581
C        2.84072239       2.55749160       0.21447222
C        4.17507178       3.10182056      -0.37629043
C        4.50061997       1.65817345      -0.85810698
H        4.26125368      -1.31611821      -0.28307890
H        3.44674192      -1.01488347      -1.83116176
H        2.65886564      -2.04514188      -0.59701913
H        2.75717397       2.58142786       1.31187877
H        1.91604806       2.96494701      -0.22052393
H        4.04784517       3.82737472      -1.18761674
H        4.87524402       3.50510311       0.36392027
H        4.59141537       1.53037072      -1.94896713
H        5.36860597       1.18611026      -0.36847808
