18
Properties=species:S:1:pos:R:3 -1802.762353778131=T 13.930029=T 14.06826=T -8.454=T -6.4596=T -8.265=T 0.5569=T -0.91=T 0.342=T 7.7133=T 0.22466=T 4.9910936258=T 0.726383171=T pbc="F F F"
C        1.01613298       0.07698067       0.18241214
C        2.51358506      -0.10739425       0.22775390
C        3.02440364      -1.45376127       0.48712483
C        2.27171783      -2.54219176       0.74165388
C        3.32757020       0.96196467       0.03526903
C        4.82614858       1.01748465       0.05277238
N        5.30925405       1.72496605      -1.14884442
H        0.75541559       1.11653739      -0.05218248
H        0.55405771      -0.18154067       1.14841150
H        0.55757834      -0.57448321      -0.57776387
H        4.11019200      -1.57995882       0.46919941
H        1.18228362      -2.50193119       0.78756128
H        2.73473766      -3.51350449       0.91746958
H        2.86096130       1.93131716      -0.17249005
H        5.26673014       0.01411029       0.19498321
H        5.13928774       1.61899400       0.92557292
H        5.11234156       1.15818618      -1.97770500
H        6.32528199       1.83258458      -1.10415823
