15
Properties=species:S:1:pos:R:3 -1554.4842436152674=T 11.230462=T 11.79318=T -9.6326=T -7.5889=T -10.408=T -0.2922=T -2.0415=T -0.957=T 9.67215=T 1.52815=T 3.4235758236=T 5.4499782104=T 0.587643909=T pbc="F F F"
C        0.86723768      -0.38597227       0.04024522
C        2.32899573       0.04485662       0.00668726
O        3.14422565      -0.87263037      -0.75417322
C        2.58312405       1.44258952      -0.48830521
C        1.66744468       2.36476862      -0.84415214
C        2.08670686       3.68042274      -1.34570106
O        1.31753634       4.56945624      -1.68518677
H        0.28075924       0.24587262       0.72226133
H        0.80251066      -1.42393139       0.39000647
H        0.41102237      -0.32802895      -0.95970378
H        2.74568743      -0.02535702       1.02779594
H        2.84264604      -0.82474465      -1.68057775
H        3.64665035       1.69446288      -0.58494553
H        0.59108743       2.18715778      -0.77735516
H        3.19739549       3.82481762      -1.40254561
