14
Properties=species:S:1:pos:R:3 -1423.288286210433=T 9.76247=T 10.65489=T -9.7916=T -7.5377=T -9.792=T 1.5627=T -0.0925=T 1.101=T 9.26578=T -0.55166=T 6.6866145744=T 0.450480884=T pbc="F F F"
C        1.64837945       0.08049268      -1.42565817
C        2.36875935      -0.15239685      -0.32303864
C        3.09466080       0.89815459       0.46972136
C        4.58331435       0.62101839       0.56259583
C        5.55010184       1.24194756      -0.35527431
O        5.41778384       1.70966706       1.00503870
H        1.14103604      -0.72645150      -1.95609374
H        1.53553055       1.08947426      -1.83076244
H        2.45118135      -1.18071210       0.04834243
H        2.69205384       0.92944880       1.49800980
H        2.93949581       1.89506177       0.02974846
H        4.85480978      -0.34897945       1.00114639
H        5.18485896       1.93348438      -1.12255773
H        6.49254404       0.73307041      -0.58296792
