19
Properties=species:S:1:pos:R:3 -1809.0480848687641=T 13.081812=T 14.28007=T -8.7173=T -6.5649=T -9.16=T 1.0922=T -0.0986=T 1.414=T 8.62749=T -0.77359=T 6.376537987=T 0.381340629=T pbc="F F F"
C        0.87697742       1.08185948      -1.19530456
N        2.33453096       0.98782476      -1.16957657
C        2.91794035       1.60238964       0.02781147
C        4.41327370       1.48480536       0.02084858
C        5.25669822       2.52327516       0.09811272
C        6.75310746       2.41123058       0.11056713
N        7.33697950       3.25117122      -0.95101158
H        0.49811424       0.67430294      -2.14285962
H        0.48334124       2.11419382      -1.07706959
H        0.45731429       0.47193506      -0.38002129
H        2.72121263       1.45603684      -1.99310307
H        2.51225483       1.05539805       0.89951338
H        2.62551585       2.66755427       0.16149548
H        4.81161044       0.46632620      -0.06105369
H        4.85980408       3.54436006       0.14976471
H        7.03938739       1.34113850       0.06463046
H        7.13162969       2.80072086       1.07221494
H        7.09746882       2.85868313      -1.86531829
H        8.35721889       3.23742406      -0.88567063
