17
Properties=species:S:1:pos:R:3 -1672.403729491964=T 10.476535=T 11.98597=T -9.9211=T -7.746=T -11.942=T 0.9238=T -0.1079=T 2.873=T 11.06637=T -2.59589=T 9.2415196848=T 11.3807121358=T 0.290354079=T pbc="F F F"
O        3.49634801       1.33075851       2.41900760
C        2.81863909       2.39668664       1.73124219
C        2.86941382       2.11554175       0.23554009
C        4.28636000       2.00997378      -0.35273927
C        5.06967181       3.29707884      -0.28164474
C        5.94260379       3.74810299      -1.37818683
O        4.65386018       4.36153624      -1.17451892
H        3.44289629       1.50704074       3.37264424
H        3.29264852       3.36991589       1.95970649
H        1.76255584       2.45876082       2.05199795
H        2.31778395       2.91532630      -0.28427366
H        2.33206530       1.17372963       0.04159622
H        4.21343757       1.70066215      -1.40703993
H        4.84732911       1.22693287       0.18254856
H        5.32140374       3.65532954       0.72518796
H        6.02617678       3.13029703      -2.27945336
H        6.80400619       4.38950627      -1.16210458
