14
Properties=species:S:1:pos:R:3 -1458.2792967430528=T 9.861136=T 10.79657=T -9.5237=T -7.5223=T -10.835=T 0.7161=T -1.3636=T -0.395=T 10.44055=T 1.02013=T 3.6893398146=T 8.702639333=T 0.218762102=T pbc="F F F"
C        0.99365610      -0.45941040      -0.30579974
C        2.40540988      -0.70841443       0.19234519
O        2.71917943      -1.71409278       0.83052076
N        3.32007088       0.26825756      -0.11010182
C        4.68116369       0.18985999       0.34737389
C        5.44058953       1.44417223       0.01350175
O        4.95422727       2.39798085      -0.56873279
H        0.33196614      -0.34433931       0.56337639
H        0.65614896      -1.34522397      -0.85842412
H        0.89986363       0.42669985      -0.94638385
H        3.05869670       1.12549520      -0.59522638
H        5.22179203      -0.66901822      -0.09506572
H        4.73773861       0.02249275       1.43980827
H        6.50862713       1.44429068       0.33967814
