13
Properties=species:S:1:pos:R:3 -1302.5184739218641=T 8.945442=T 9.75601=T -9.638=T -7.4418=T -10.873=T 1.025=T -1.0362=T 0.038=T 10.05332=T 0.58087=T 3.6598683424=T 12.6036604454=T 0.23350778=T pbc="F F F"
O        1.38804165       1.68944022      -0.00703679
C        2.58530752       1.89960955      -0.02511566
C        3.49318814       1.52593230      -1.18423413
N        4.88279809       1.43652401      -0.75058398
C        5.33568962       0.09241377      -0.36032698
C        5.77708508       0.69959704      -1.64968795
H        3.10855733       2.41314766       0.82199560
H        3.41058032       2.34439021      -1.92335208
H        3.09712280       0.60951110      -1.66788699
H        4.61110419      -0.72649707      -0.41772375
H        6.01608257       0.05604090       0.49253104
H        6.78404761       1.11051403      -1.74779660
H        5.35041508       0.28316628      -2.56798173
