17
Properties=species:S:1:pos:R:3 -1750.048065600768=T 11.624682=T 12.50264=T -8.6656=T -6.4239=T -8.439=T 0.8072=T -0.1008=T 1.418=T 7.91443=T -0.72023=T 5.6727810524=T 0.321312751=T pbc="F F F"
C        0.95112747       0.13700013      -0.11029984
C        2.43599397      -0.00430782      -0.02602370
C        3.19499505      -1.11430379      -0.04093514
C        2.78646399      -2.54730964      -0.14797753
C        4.64444846      -0.72586247       0.07246046
O        4.67179472       0.70755091       0.15644713
C        3.32548582       1.20343057       0.09660754
H        0.44819607      -0.83270209      -0.21538707
H        0.66065518       0.76312308      -0.96975897
H        0.54814469       0.63100464       0.78899432
H        3.23114945      -3.02103786      -1.03829701
H        1.69721006      -2.66327301      -0.21381024
H        3.13550675      -3.12526373       0.72325225
H        5.12310443      -1.15963976       0.97367111
H        5.23526846      -1.05897481      -0.80475079
H        3.21849625       1.88813411      -0.76949099
H        3.10568918       1.79335155       1.00940847
