15
Properties=species:S:1:pos:R:3 -1616.1850170216937=T 11.13885=T 11.83147=T -8.0276=T -5.9967=T -8.455=T 0.9109=T 0.0224=T 1.12=T 8.1105=T -0.62683=T 5.059124744=T 10.8137861508=T 0.423561091=T pbc="F F F"
C        1.00600679      -0.12044219       0.00540085
C        2.48361197       0.07060042      -0.09210921
C        3.13853109       1.24155198      -0.07568976
C        4.63650481       1.36334271      -0.17822012
C        5.24494676      -0.00727114      -0.30261129
C        4.50464276      -1.12036573      -0.30890483
O        3.12742251      -1.16136717      -0.20667534
H        0.49702477       0.84679193       0.08744149
H        0.75116927      -0.73202540       0.88433469
H        0.62467696      -0.64894447      -0.88153697
H        2.54150367       2.14990727       0.01758187
H        5.04716501       1.89278024       0.70385639
H        4.91893426       1.99478932      -1.04326448
H        6.32658899      -0.11385319      -0.39161404
H        4.91033038      -2.12771458      -0.39671925
