16
Properties=species:S:1:pos:R:3 -1609.1303641187085=T 10.112928=T 11.00321=T -8.5991=T -6.4617=T -10.026=T 0.9682=T 0.0127=T 2.885=T 9.36348=T -2.70433=T 7.97787917=T 13.1132181082=T 0.10426673=T pbc="F F F"
C       -1.20275301      -0.00152065       1.01700318
C       -0.63834095      -1.00787870      -0.00044879
C        0.86864305      -1.23048113       0.24147841
N        1.64142696      -0.00083653      -0.02912650
C        0.86951869       1.22847303       0.24532932
C       -0.63762865       1.00768283       0.00273848
O       -0.78196789       0.00164644      -1.06838476
H       -0.78389127      -0.00329854       2.03404498
H       -2.29926260      -0.00116180       1.04701544
H       -1.19625253      -1.93047107      -0.21898581
H        1.02343225      -1.56171229       1.28443483
H        1.25832026      -2.02380963      -0.41271782
H        1.82103564       0.00065922      -1.03413745
H        1.25971098       2.02357478      -0.40639805
H        1.02454532       1.55635056       1.28930913
H       -1.19492624       1.93134348      -0.21284460
