16
Properties=species:S:1:pos:R:3 -1532.1041132254784=T 11.050013=T 11.79285=T -9.3822=T -7.2922=T -10.517=T 1.3445=T -0.4054=T 0.338=T 10.05133=T 0.2738=T 5.3476277674=T 6.354778444=T 0.288848544=T pbc="F F F"
C        1.13963442      -0.37996203       0.36942394
C        2.60538685      -0.29269353      -0.00396116
O        3.10220427       0.96553237       0.50751454
N        4.46200970       1.08354921       0.19288369
C        4.97445832       2.18354945       0.60340331
C        6.42736662       2.42184365       0.32599142
O        7.05301635       1.36297925      -0.37463520
H        0.72050925      -1.32289916      -0.00711823
H        0.57013472       0.45000794      -0.07066694
H        1.00723738      -0.35490652       1.45958134
H        2.74806465      -0.31580524      -1.09681224
H        3.18811226      -1.11524449       0.44217158
H        4.39117930       2.94108319       1.14276208
H        6.94585935       2.59462259       1.29016830
H        6.52552939       3.36330226      -0.25039262
H        6.35552719       0.68827106      -0.51126381
