15
Properties=species:S:1:pos:R:3 -1509.9249134107974=T 10.940268=T 12.4875=T -9.9629=T -7.6206=T -9.919=T 1.0839=T -0.0985=T 2.263=T 9.81051=T -1.85847=T 4.4152282502=T 11.023099316=T 0.395803768=T pbc="F F F"
O        0.87746555      -0.03267012       0.02372686
C        2.30826853      -0.09126599       0.00566977
C        2.80469671       1.34635613      -0.00432022
O        4.22943706       1.30869959      -0.02283246
C        4.78020112       2.62614412      -0.03370417
C        6.23484869       2.56533370      -0.05433591
C        7.44714537       2.55471599      -0.07101146
H        0.54136109      -0.94369784       0.03053023
H        2.68466261      -0.61159121      -0.89302378
H        2.70743721      -0.60707566       0.89710689
H        2.43381469       1.87645396       0.89472277
H        2.41052580       1.87198444      -0.89604993
H        4.44651597       3.18979393       0.86157577
H        4.42108939       3.18556716      -0.92177854
H        8.51783022       2.53665181      -0.08575583
