15
Properties=species:S:1:pos:R:3 -1475.7430361055704=T 11.869883=T 11.88208=T -8.0025=T -6.0948=T -8.942=T 1.5311=T -0.1013=T 0.71=T 8.47528=T -0.11754=T 5.247397485=T 6.2874044516=T 0.289970017=T pbc="F F F"
C        0.86908896       0.07093686      -0.02242524
C        2.35162883       0.25044766      -0.01713087
O        3.20415047      -0.85372037       0.05037065
C        2.71602640      -2.13863392       0.09164392
C        3.54189118      -3.18848882       0.13824064
N        2.87421576       1.42104183      -0.07508754
N        4.25040280       1.53115709       0.01910323
H        0.41961751       1.06763163      -0.07437084
H        0.50796762      -0.42691685       0.89123856
H        0.52233479      -0.51518623      -0.88767101
H        1.63037197      -2.24219144       0.08625228
H        4.62442415      -3.06758054       0.14743636
H        3.12373739      -4.19177823       0.17295589
H        4.54325438       2.38366486      -0.45358723
H        4.76424778       0.71169646      -0.31985879
