16
Properties=species:S:1:pos:R:3 -1639.834806071021=T 12.589602=T 13.70954=T -9.3287=T -7.2247=T -9.05=T 0.8808=T -0.1449=T 1.15=T 8.59258=T -0.54301=T 4.3576863476=T 10.7938863978=T 0.498838167=T pbc="F F F"
C        0.73876983       0.08262691       0.08604149
C        2.22489698       0.07192097       0.27925896
C        3.07208043       0.96509154      -0.24348136
C        4.58682771       0.97377171      -0.05124450
N        5.17449949      -0.05822515       0.81514025
C        5.23912421       0.94771709      -1.36816980
C        5.73950894       0.92893669      -2.47346854
H        0.39648981      -0.84982124      -0.39079557
H        0.41631081       0.92532437      -0.54062097
H        0.21262010       0.15063374       1.05172275
H        2.62647728      -0.74107259       0.89614664
H        2.68721281       1.77898846      -0.86848931
H        4.84542438       1.94846260       0.40863435
H        5.00352934      -0.98237889       0.40914283
H        4.70534498      -0.03791567       1.72422417
H        6.19622289       0.90914946      -3.44180138
