9
Properties=species:S:1:pos:R:3 -1031.1041260533677=T 12.369523=T 11.88713=T -9.5895=T -7.7618=T -9.024=T -0.8444=T -2.4946=T -1.514=T 8.38222=T 2.19981=T 3.3933480368=T 8.2747512484=T 0.40289601=T pbc="F F F"
C        0.86568866       0.08103747      -0.00262111
C        2.08222929       0.06198423      -0.00051601
C        3.48645579       0.04147328       0.00190508
C        4.36472201       1.12145807       0.00170896
N        5.68072340       0.77704333       0.00447759
N        5.92926645      -0.48176792       0.00690678
S        4.43525160      -1.40368009       0.00580470
H       -0.20520497       0.09860864      -0.00447660
H        4.07337778       2.16923300      -0.00043940
