16
Properties=species:S:1:pos:R:3 -1624.9184801925026=T 10.920462=T 11.41426=T -8.5349=T -6.4682=T -9.04=T 0.8628=T -0.1486=T 1.253=T 8.5729=T -0.69012=T 6.0262403412=T 0.282468362=T pbc="F F F"
N        0.96498316       0.21576346      -0.25712543
C        2.37099719       0.02393875       0.17762533
C        3.20490672       1.25349321      -0.22756630
C        3.49830718       1.19066519      -1.71816944
O        4.29594397       0.02814925      -2.05820971
C        3.88249076      -1.11674522      -1.44804524
C        2.97861381      -1.19861991      -0.45333481
H        0.44325883       0.72304699       0.46313382
H        0.50905499      -0.69299402      -0.36485585
H        2.44316488      -0.09687485       1.27729305
H        2.65419031       2.17998636      -0.00546931
H        4.14794410       1.27304820       0.34162520
H        4.07944565       2.05080415      -2.07378366
H        2.54734931       1.12756482      -2.27456104
H        4.39824741      -1.98676665      -1.85952534
H        2.73024173      -2.18597972      -0.06135128
