14
Properties=species:S:1:pos:R:3 -1416.5230034226176=T 11.079959=T 10.95586=T -8.4172=T -6.5204=T -9.239=T 0.7793=T -0.845=T -0.177=T 8.72092=T 0.88917=T 4.3304466234=T 4.9398626106=T 0.33059694=T pbc="F F F"
C        3.11595320      -1.36951297      -0.12949814
C        2.63246836       0.05683559      -0.19640638
O        1.45096512       0.38174366      -0.40730683
N        3.54748599       1.07012613      -0.01412873
O        2.99881394       2.35040851      -0.09524814
C        4.91182772       0.99734129       0.23385365
C        5.71964145       2.05713611       0.39721004
H        3.87051876      -1.57779738      -0.90053663
H        2.24902676      -2.01613226      -0.29736245
H        3.55067103      -1.60398841       0.85198297
H        2.04736670       2.09187681      -0.27283485
H        5.27498401      -0.02755896       0.28480776
H        5.34522790       3.07649580       0.34411020
H        6.77710908       1.89193607       0.58778753
