13
Properties=species:S:1:pos:R:3 -1372.6528473515157=T 15.845305=T 14.03887=T -7.9239=T -6.0959=T -8.195=T -0.1732=T -1.6607=T -0.513=T 7.70491=T 1.04252=T 3.3961377218=T 3.7948271034=T 0.398368715=T pbc="F F F"
N        0.96746178      -0.01837616      -0.17409376
N        2.31534635      -0.11293595      -0.09300842
C        2.99116174       1.00144769      -0.07160343
C        4.39720696       1.01148816      -0.05968475
C        5.61810384       1.12573436      -0.04411540
C        7.02721591       1.17077162      -0.02744343
C        7.77024502       2.29793519       0.02362812
H        0.50497178      -0.85630191       0.16748197
H        0.53094590       0.85940563       0.13255043
H        2.47724412       1.97974990      -0.06295258
H        7.53305873       0.19946806      -0.05961770
H        7.30656259       3.28427958       0.05676536
H        8.85839527       2.24544381       0.03342359
