19
Properties=species:S:1:pos:R:3 -1803.020836747338=T 11.971972=T 13.10442=T -8.9377=T -6.8483=T -10.468=T 0.8894=T -0.0569=T 3.353=T 9.78379=T -3.31454=T 8.6875006424=T 11.2757455882=T 0.110812452=T pbc="F F F"
C        2.16471393      -0.22846281       0.46156336
C        2.80680524      -0.52458487      -0.89053876
C        2.00926516      -1.56235490      -1.69589408
N        2.02114593      -2.87122688      -1.02492860
N        2.88854923       0.71087302      -1.68460273
C        4.03130187       1.57987840      -1.39005039
C        3.99154889       0.77988700      -2.64950772
H        2.79904085       0.43389069       1.06758772
H        2.00252768      -1.16567404       1.00888227
H        1.19411164       0.26768691       0.31278066
H        3.82918562      -0.94027081      -0.71846234
H        2.40752998      -1.58030502      -2.72972713
H        0.96521481      -1.21705190      -1.76281719
H        2.93938736      -3.31029522      -1.13336236
H        1.35238799      -3.49863049      -1.47567158
H        4.73763611       1.25055587      -0.61967080
H        3.82990051       2.65319795      -1.40784670
H        3.76003009       1.25841357      -3.60377799
H        4.67285713      -0.07679649      -2.71010563
