21
Properties=species:S:1:pos:R:3 -2071.0269703298018=T 13.59785=T 14.907=T -9.0514=T -6.9021=T -8.922=T 0.8709=T 0.0134=T 1.495=T 8.37151=T -0.83527=T 6.2577346018=T 0.411256674=T pbc="F F F"
C        0.86782023       0.97078505      -1.01740978
C        2.36094082       0.83391893      -1.04787484
C        3.18778278       1.28996500      -0.09726391
C        4.70021128       1.19302761      -0.05183491
C        5.09795875       0.42733534       1.23015269
C        5.28563581       0.47376525      -1.27591218
C        5.27539770       2.62532937       0.02327686
H        0.50008900       1.52804047      -1.89429549
H        0.52816558       1.49511578      -0.11304017
H        0.37589679      -0.01503913      -1.04634410
H        2.77761690       0.32047414      -1.92117728
H        2.74433373       1.80163238       0.76884500
H        4.69340584       0.92042333       2.12719694
H        6.19353060       0.38510156       1.33260124
H        4.71311433      -0.60273448       1.20752653
H        5.03733323       1.00084646      -2.20917008
H        4.91152003      -0.55795492      -1.35351745
H        6.38222916       0.42764079      -1.19868053
H        5.01976886       3.19898970      -0.87961402
H        6.37221988       2.59839901       0.11707042
H        4.87503870       3.16732838       0.89359504
