15
Properties=species:S:1:pos:R:3 -1501.9692331429565=T 11.532624=T 11.46552=T -8.7127=T -6.6541=T -8.583=T 0.6665=T -0.8867=T 0.303=T 8.02894=T 0.20253=T 5.2657722102=T 0.747307098=T pbc="F F F"
N        0.82507418       0.14394041       0.06634610
C        2.28984836       0.19373614       0.13456620
C        2.83860023       1.60636915       0.14681399
C        2.02887046       2.68414064       0.20397578
C        4.29185418       1.78342159       0.10135923
C        5.22137011       0.80947145       0.08426216
H        0.51116479      -0.81792229       0.20514589
H        0.51343440       0.41542770      -0.87012917
H        2.79368848      -0.35829767      -0.68497494
H        2.60118633      -0.30425287       1.06924536
H        0.94736587       2.57060832       0.27227416
H        2.44410708       3.69341596       0.20845188
H        4.62892726       2.82568144       0.09449604
H        4.96265347      -0.25071862       0.09398226
H        6.28388480       1.05264866       0.06348507
