18
Properties=species:S:1:pos:R:3 -1802.6045467041295=T 14.382573=T 14.72053=T -8.4311=T -6.4805=T -8.326=T 0.7557=T -0.8122=T 0.333=T 7.83649=T 0.23045=T 5.0636254358=T 0.832322675=T pbc="F F F"
N        0.74727885       0.05940538      -0.15805295
C        2.20557725      -0.11615577      -0.08155883
C        2.91183001       1.24952518      -0.09779545
C        4.38822248       1.14296963       0.12031776
C        5.33909564       1.51861530      -0.76023806
C        6.76581805       1.39999986      -0.52473714
C        7.71867295       1.77806659      -1.39855325
H        0.28563827      -0.85100936      -0.09438749
H        0.49293521       0.43896746      -1.07448873
H        2.63339621      -0.74548103      -0.88761968
H        2.43126546      -0.62388042       0.87077045
H        2.45259540       1.86570116       0.69504737
H        2.71013912       1.75802958      -1.05607170
H        4.70830509       0.71340456       1.07860483
H        5.03262335       1.94859992      -1.72224664
H        7.06548125       0.97040032       0.43822071
H        7.45984009       2.21140732      -2.36772616
H        8.77876533       1.66633433      -1.17132506
