16
Properties=species:S:1:pos:R:3 -1555.356171737651=T 10.414952=T 11.33005=T -8.6271=T -6.6837=T -10.335=T 0.7253=T -0.2514=T 0.169=T 9.86236=T 0.51978=T 4.3836242188=T 11.5256021754=T 0.163700288=T pbc="F F F"
C        2.24747616      -0.68693965      -0.50967076
C        3.36172574       0.35825870      -0.53517526
C        3.32911195       1.25308273       0.69553495
O        2.41894443       1.22646685       1.54877241
N        4.36671034       2.11292299       0.89404488
C        5.38226906       2.58325634      -0.01387427
O        4.20822039       2.95608204       2.01003971
H        2.28579630      -1.30309705      -1.41793842
H        1.26206650      -0.20794119      -0.45001243
H        2.34468942      -1.34515205       0.36352692
H        3.26784352       0.99171208      -1.43415813
H        4.34645013      -0.13140336      -0.60495472
H        5.45858827       1.88588764      -0.85355207
H        6.35148257       2.62709971       0.50282225
H        5.13262727       3.58759748      -0.39349544
H        3.34325796       2.58358676       2.35250036
