15
Properties=species:S:1:pos:R:3 -1549.0324126447313=T 9.873126=T 11.05011=T -9.1962=T -7.0945=T -10.607=T 0.9809=T -0.7987=T 0.186=T 9.70513=T 0.5466=T 3.7701290922=T 11.5410384324=T 0.131733539=T pbc="F F F"
C        1.21451204       0.06229859       1.15492601
C        2.03245787       0.36215401      -0.07437823
O        1.79430332      -0.10544116      -1.17974687
C        3.22597431       1.29893994       0.08368655
C        3.16727084       2.64309888      -0.67899755
C        3.43997688       3.27352556       0.69891897
O        3.32473123       1.97981819       1.36862821
H        1.86427924      -0.30989388       1.96121053
H        0.43450097      -0.66757289       0.91506292
H        0.76918531       0.99148528       1.54080775
H        4.13722317       0.70846239      -0.12948751
H        2.18005493       2.86444250      -1.10244560
H        3.93359868       2.78853884      -1.44770477
H        4.45096092       3.69530547       0.82264592
H        2.69405028       3.99083828       1.07467368
