15
Properties=species:S:1:pos:R:3 -1445.895321094937=T 9.395015=T 10.49579=T -9.4942=T -7.2915=T -10.932=T 0.8937=T -0.037=T 2.816=T 10.35218=T -2.56762=T 8.5977967714=T 11.572915233=T 0.176192456=T pbc="F F F"
C        1.06127165      -0.11972589      -0.01702928
C        2.56128385       0.03489322      -0.04885265
N        3.34351251      -0.45265870      -1.21035786
C        3.21544529       1.01131212      -0.96129602
C        4.52628195       1.68022868      -0.62725035
O        5.40208433       1.71397401      -1.75730393
H        0.61583640       0.52987879       0.75144122
H        0.77594267      -1.15662174       0.21620290
H        0.61286754       0.14881180      -0.98560760
H        3.06517554      -0.16671298       0.90317222
H        2.69126827      -0.72413189      -1.95492242
H        2.55938636       1.57316691      -1.63524097
H        4.99874036       1.15382829       0.22327423
H        4.36418487       2.72807481      -0.33275385
H        5.48143842       0.78622256      -2.05000562
