14
Properties=species:S:1:pos:R:3 -1412.8162245694505=T 11.462819=T 12.23225=T -8.9206=T -6.9288=T -9.478=T 1.1589=T -0.528=T 0.463=T 8.95079=T 0.15387=T 4.9773435784=T 5.5409467386=T 0.319656109=T pbc="F F F"
C        0.25692606       0.59635013       0.82815034
C        1.14009104       0.15169857      -0.29021888
N        2.24133953      -0.46918830      -0.05650562
N        2.96431379      -0.93418890      -1.13389681
C        4.38920405      -1.04053960      -0.82117355
C        5.10673879      -1.71202836      -1.90588572
N        5.69284134      -2.21570738      -2.77842001
H       -0.73134368       0.11292965       0.76422308
H        0.08194245       1.68283749       0.78510329
H        0.71077670       0.34468764       1.79441943
H        0.81048351       0.35740382      -1.32600537
H        2.78927441      -0.43400055      -2.01637210
H        4.48398515      -1.63447410       0.09994435
H        4.87922687      -0.06493011      -0.63483242
