20
Properties=species:S:1:pos:R:3 -1935.8574128382234=T 12.207729=T 13.39514=T -8.6587=T -6.5153=T -10.199=T 0.9169=T 0.0049=T 2.893=T 9.49991=T -2.54186=T 8.2693454588=T 10.1538830644=T 0.132632289=T pbc="F F F"
C        1.81298290      -0.61204223      -1.28144274
C        2.33705741       0.03515541       0.00340569
C        3.29382375       1.22228079      -0.20273699
C        4.54146684       0.84909151      -0.99413740
C        2.54560496       2.51894855      -0.64821928
N        2.43799621       2.92489708       0.77914376
C        3.53237181       1.98303534       1.13802228
H        1.07094127      -1.38913625      -1.04887266
H        2.61605969      -1.08976785      -1.86074548
H        1.32164756       0.12523782      -1.93462743
H        2.85806719      -0.72603276       0.61104292
H        1.48771545       0.38925017       0.61009983
H        5.23235939       1.70195305      -1.06748832
H        4.29406512       0.53363797      -2.01905279
H        5.08087965       0.01830114      -0.51107550
H        1.57550179       2.39912509      -1.15854012
H        3.19415503       3.16955598      -1.26462027
H        2.64361499       3.90898257       0.96129409
H        4.53945950       2.43955541       1.17454799
H        3.36035949       1.42082122       2.07126242
