15
Properties=species:S:1:pos:R:3 -1561.2443364882479=T 11.836456=T 12.05265=T -8.393=T -6.4866=T -8.987=T 0.5333=T -1.1421=T -0.091=T 8.33194=T 0.5714=T 4.8022629478=T 5.2195998238=T 0.32083937=T pbc="F F F"
C        0.93046221       0.08084102       0.05398280
C        2.23722146       0.17213557      -0.23947912
C        3.03971723       1.39104771      -0.15352603
N        4.33046144       1.37245496      -0.28767277
C        4.78111640       2.75847521      -0.07658390
C        3.50871369       3.63583635      -0.17168204
N        2.46444197       2.63890594       0.13479675
H        0.40002851      -0.86714088      -0.03412987
H        0.35355630       0.93457767       0.41498608
H        2.80298492      -0.70365725      -0.56308616
H        5.23812439       2.82800002       0.92665935
H        5.55403449       3.03349567      -0.80809599
H        3.38039137       4.05002142      -1.18789623
H        3.49753704       4.46328293       0.55065391
H        1.54342856       2.80820366      -0.26609678
