17
Properties=species:S:1:pos:R:3 -1657.6683326988973=T 11.103644=T 12.09823=T -9.0295=T -7.0717=T -10.387=T 0.703=T -0.3023=T 0.673=T 9.48568=T -0.01047=T 4.3765322196=T 8.735185658=T 0.162623974=T pbc="F F F"
C        0.95487557       2.40813773       0.66928326
C        2.24801087       1.60836586       0.69209014
O        2.32944782       0.51655596       1.26076243
N        3.29897627       2.18028217       0.02736549
C        4.61368554       1.56974485      -0.04649510
C        5.70256142       2.63350353       0.07759677
N        5.50913864       3.67228998      -0.95071935
H        1.07186595       3.43019582       0.28481065
H        0.54980455       2.44499109       1.68824222
H        0.22404817       1.87591160       0.04463431
H        3.20801584       3.09196392      -0.41639909
H        4.73384226       1.02169591      -1.00060532
H        4.68315033       0.82845142       0.76151951
H        6.69004778       2.13503004       0.03880448
H        5.61656326       3.11796483       1.06269606
H        5.79306900       3.31339579      -1.86657098
H        6.10980673       4.47649950      -0.76035547
