12
Properties=species:S:1:pos:R:3 -1274.7066490994=T 10.099424=T 9.91778=T -8.3397=T -6.4082=T -9.318=T 0.4581=T -1.2531=T -0.367=T 8.77856=T 0.85769=T 5.1194315344=T 0.474127598=T pbc="F F F"
O        1.07570361       0.05206383      -0.42919265
N        2.33274786       0.01717399       0.24990673
C        2.85208113       1.19842616       0.25412724
O        4.07599229       1.36039323       0.86971127
C        4.45186514       2.74941085       0.75548930
C        3.33239083       3.40084753       0.00706495
C        2.39995934       2.47669576      -0.28073326
H        0.80245768      -0.87827602      -0.35674641
H        5.41961147       2.81157807       0.22685946
H        4.59107128       3.16274389       1.77027903
H        3.31405655       4.45977436      -0.24441296
H        1.46150282       2.60252836      -0.81153271
