17
Properties=species:S:1:pos:R:3 -1739.9817455490781=T 10.953684=T 12.25589=T -8.9334=T -6.8611=T -10.627=T 0.9606=T 0.0646=T 2.986=T 10.20508=T -2.63157=T 8.3637607978=T 10.5920991828=T 0.297819786=T pbc="F F F"
C        1.93829985       0.09083471      -0.61505360
C        1.64928882      -0.18467250       0.85800655
C        0.53151013       0.10049224      -0.12043393
C       -0.36235357       1.33880987      -0.01076429
C       -1.79433401       0.74296191       0.01768406
C       -1.54056832      -0.76756399       0.14578639
O       -0.28937747      -0.98986092      -0.52317200
H        2.39253636       1.04420493      -0.88900688
H        2.23730928      -0.75886028      -1.22961819
H        1.75950307      -1.21579570       1.19548394
H        1.91249371       0.58133088       1.58999794
H       -0.13353147       1.91565593       0.89597632
H       -0.22727736       2.00304252      -0.87646737
H       -2.40457441       1.13316215       0.84371247
H       -2.31917879       0.95852227      -0.92327539
H       -2.29550938      -1.39468834      -0.34652466
H       -1.46214646      -1.06664568       1.20952864
