15
Properties=species:S:1:pos:R:3 -1496.557120126725=T 10.434364=T 11.28509=T -9.3293=T -7.2903=T -10.519=T 0.8309=T -0.114=T 0.436=T 9.62954=T 0.22376=T 4.35624811=T 12.0398341104=T 0.35898649=T pbc="F F F"
N        0.85277736       1.71633971      -0.04151894
N        2.21806348       1.68536783       0.34189140
C        3.13020443       0.98430119      -0.42031501
O        2.76942402       0.20995067      -1.31186120
C        4.56027218       1.23305298      -0.06502756
C        5.53061148       0.07798859      -0.24667409
C        5.57149166       1.22923277      -1.20151226
H        0.38086625       0.96241062       0.47099533
H        0.84053391       1.41358198      -1.02563265
H        2.53142459       2.53674785       0.80353914
H        4.74915802       1.91206901       0.76921227
H        5.09041229      -0.85161293      -0.60789732
H        6.32363379      -0.02156848       0.49406095
H        6.39298125       1.94231958      -1.13457137
H        5.15958529       1.06381863      -2.19722866
