12
Properties=species:S:1:pos:R:3 -1254.0341480908999=T 9.36661=T 9.4858=T -9.0057=T -6.9626=T -9.472=T 1.0567=T -0.6592=T 0.219=T 9.06842=T 0.35534=T 5.135934071=T 6.7291913668=T 0.332040245=T pbc="F F F"
C        1.03081171       1.15166126      -0.29916927
O       -0.15919527       1.48937069       0.44918409
N       -1.34448320       0.83545531       0.05429073
C       -1.38396216      -0.44260943      -0.05448000
O       -0.49048325      -1.47409139       0.08896702
C        0.88284833      -1.32471937       0.13874553
C        1.59305554      -0.20735368      -0.03096506
H        1.75106733       1.92908526      -0.00731543
H        0.81098518       1.28706314      -1.37262437
H       -2.36793587      -0.84937506      -0.29733020
H        1.33721380      -2.29698341       0.32447231
H        2.67743786      -0.30775332       0.03617465
