11
Properties=species:S:1:pos:R:3 -1310.897663045876=T 10.628759=T 10.06839=T -9.3325=T -7.4637=T -9.437=T -0.7991=T -2.4954=T -1.338=T 8.9277=T 1.82202=T 4.0634923668=T 4.4286187382=T 0.586606906=T pbc="F F F"
C        1.04494028      -0.04518464      -0.06675804
C        2.37027942       0.05215368       0.13912158
O        3.15128733      -1.05602988       0.40848403
C        4.49098107      -0.61800772       0.57356206
O        5.38307530      -1.39342573       0.81893876
C        4.48508372       0.84412310       0.38800751
C        3.21864452       1.23305638       0.12940437
H        0.53758987      -1.00694705      -0.02851484
H        0.46566436       0.85149276      -0.27588593
H        5.38740683       1.44341048       0.46102363
H        2.84598732       2.23740862      -0.05932312
