16
Properties=species:S:1:pos:R:3 -1617.903873246457=T 10.877254=T 12.27686=T -10.3381=T -8.2073=T -11.659=T 0.8136=T -0.3672=T 1.386=T 11.75698=T -1.02316=T 5.4133031516=T 11.728765635=T 0.239534386=T pbc="F F F"
C        1.20856354      -0.90907301       1.06585170
C        1.98592449      -1.15828438      -0.22583536
C        2.93655404      -2.34069077      -0.11330201
O        1.10664863      -1.46517173      -1.33646983
C        0.37890553      -0.34075319      -1.79813343
C       -0.32801861      -0.69418519      -3.03137307
N       -0.90533853      -0.93250745      -4.01508494
H        0.53903764      -0.04074516       0.99232516
H        1.90708030      -0.71088208       1.89108381
H        0.60779436      -1.79298679       1.32448040
H        2.56221872      -0.24777660      -0.49020983
H        2.37786961      -3.25799714       0.12134544
H        3.66865563      -2.16546333       0.68653572
H        3.47576858      -2.49433472      -1.05680935
H        1.05094591       0.51351332      -2.01823037
H       -0.37373983       0.00960824      -1.06592406
