19
Properties=species:S:1:pos:R:3 -1926.003209797775=T 12.944304=T 14.23166=T -8.8314=T -6.7627=T -8.966=T 0.9608=T 0.0683=T 1.438=T 8.34621=T -0.77703=T 6.2468114352=T 0.401649624=T pbc="F F F"
C        1.00592282       0.03628620      -0.01626263
C        2.51020868      -0.10234902      -0.02366833
C        3.22858329      -0.72946457      -1.19518108
C        3.37055360       0.75300470      -0.94789318
C        4.62130714       1.39129041      -0.44268726
C        4.44122577       2.79133233       0.08765753
C        5.81701942       0.77972785      -0.43955190
H        0.67836792       0.85263614       0.64563442
H        0.52213815      -0.89029650       0.32995294
H        0.62540501       0.25146685      -1.02613151
H        2.96666566      -0.30312445       0.94999355
H        2.62784521      -1.03797215      -2.05274501
H        4.08180185      -1.37502165      -0.98626253
H        2.78558789       1.39676085      -1.61474010
H        4.04192093       3.45694769      -0.69507565
H        5.38710112       3.21520576       0.44952535
H        3.71177627       2.80631155       0.91366946
H        5.95323521      -0.22392968      -0.84441915
H        6.70049408       1.27385771      -0.03129492
