15
Properties=species:S:1:pos:R:3 -1473.5743278573036=T 10.250743=T 10.68089=T -9.1298=T -7.1524=T -10.45=T 0.7616=T -0.2785=T 0.453=T 9.98351=T 0.15032=T 5.142009385=T 9.3848598994=T 0.224587763=T pbc="F F F"
N        0.99939361       0.05842680       0.50391299
C        2.41829202       0.00331846       0.13132386
C        2.74551906       1.17236268      -0.79280585
O        4.13422663       1.17722845      -1.18566118
N        4.63288222      -0.02961094      -1.70714222
C        3.95930263      -1.10472036      -1.48498507
C        2.71210324      -1.26817551      -0.66171208
H        0.83073734       0.85341866       1.12656376
H        0.74780097      -0.77767143       1.03830506
H        3.11155514       0.05220219       0.99483513
H        2.60014506       2.14561843      -0.30246625
H        2.10477823       1.12218140      -1.69163564
H        4.41801641      -1.99095833      -1.93381363
H        1.85062844      -1.49277168      -1.31570896
H        2.83786901      -2.13939884       0.00241008
