15
Properties=species:S:1:pos:R:3 -1476.6973922501772=T 12.382887=T 11.88249=T -8.2376=T -6.3374=T -8.725=T 0.5216=T -1.0728=T -0.286=T 8.25398=T 0.78837=T 4.6545088316=T 4.7584834912=T 0.503665197=T pbc="F F F"
N        0.92075872       1.47099282       0.26767601
N        2.26490029       1.69303400       0.19638868
C        3.04394348       0.66440865       0.08820548
C        4.48039448       0.81787944      -0.08696948
C        5.27906005      -0.26616661      -0.18700559
C        5.02563400       2.23188281      -0.15583921
O        6.44919531       2.31814871      -0.18597237
H        0.44634878       2.23754846       0.73887561
H        0.63163766       0.54751893       0.61458524
H        2.64187631      -0.36604331       0.11449557
H        4.86715290      -1.27507498      -0.13340502
H        6.35138672      -0.15998619      -0.34693222
H        4.59937566       2.82178871       0.67462277
H        4.67309380       2.70972390      -1.08290606
H        6.77966183       2.00590466       0.67507060
