14
Properties=species:S:1:pos:R:3 -1421.692999086672=T 9.556201=T 10.42671=T -9.3051=T -7.1762=T -10.574=T 0.8095=T -1.0536=T 0.199=T 9.77916=T 0.55955=T 3.745431081=T 12.8943084266=T 0.12794729=T pbc="F F F"
O        2.25296259      -0.25651302      -1.36446020
C        2.26231993       0.16295426       0.00587749
C        3.38400216       1.18150238       0.16181032
N        3.23186357       2.46876674      -0.58056348
C        2.88421934       3.23147550       0.65363553
C        3.26861797       1.99165556       1.47111163
O        3.41892096       1.74464627       2.64263289
H        1.50800570      -0.86853263      -1.48783816
H        2.45531281      -0.68230471       0.69129791
H        1.29249927       0.61902301       0.28485787
H        4.35647006       0.69151865      -0.01470060
H        2.49149034       2.43164202      -1.28413621
H        3.49293541       4.13346383       0.82539126
H        1.81936990       3.49364214       0.78887374
