16
Properties=species:S:1:pos:R:3 -1629.3878474623848=T 11.957584=T 12.00079=T -8.7027=T -6.653=T -8.541=T 0.5855=T -0.9515=T 0.305=T 7.9754=T 0.20396=T 5.2271133754=T 0.725993902=T pbc="F F F"
C        2.61439861      -0.56520390       1.26389140
C        2.35491813       0.18700438      -0.05250654
C        2.90087330       1.59921364      -0.04995588
C        2.08743193       2.65878924       0.15247034
C        4.33508739       1.82436268      -0.25261513
C        5.26234239       0.89131045      -0.53750947
H        2.22373223      -1.59157016       1.20964026
H        2.11984770      -0.05626580       2.10359685
H        3.68717801      -0.62074670       1.49421836
H        1.27120336       0.22845512      -0.23933296
H        2.79279572      -0.37653668      -0.89286070
H        1.01192827       2.53444214       0.29098441
H        2.47898959       3.67771379       0.18215868
H        4.65648678       2.86862937      -0.17085004
H        5.01558089      -0.16707983      -0.63837972
H        6.30662569       1.16738226      -0.68485988
