19
Properties=species:S:1:pos:R:3 -1894.6176845979048=T 11.890085=T 13.70283=T -9.2283=T -7.1971=T -10.63=T 1.3546=T -0.4964=T 0.262=T 9.64081=T 0.46563=T 3.7392069838=T 11.2547423598=T 0.321558991=T pbc="F F F"
C        0.81820703      -0.79680468       0.51751559
C        2.28609812      -0.84625369       0.08904294
C        2.96989171       0.52311063       0.13527045
C        4.43112340       0.47323065      -0.30163843
C        5.15228221       1.81515676      -0.27598034
C        6.61571924       1.79611069      -0.68164865
O        4.59182057       2.85036196       0.05494548
H        0.35281604      -1.79203340       0.47496548
H        0.23668671      -0.12715189      -0.13440143
H        0.71722208      -0.42376014       1.54814135
H        2.35672762      -1.25652256      -0.93378080
H        2.83492619      -1.55198797       0.73729308
H        2.91120056       0.93831493       1.15454158
H        2.42630224       1.23642072      -0.50525445
H        4.52265830       0.06705888      -1.32622989
H        5.00915711      -0.22897389       0.32761336
H        7.19499608       1.18899343       0.03114726
H        7.01287607       2.81692019      -0.69770235
H        6.74051872       1.32916940      -1.67013021
