17
Properties=species:S:1:pos:R:3 -1635.5541962759937=T 11.088069=T 11.84028=T -8.5827=T -6.6402=T -9.479=T 0.6792=T -0.3688=T 1.068=T 8.66475=T -0.52552=T 5.0188664898=T 8.7051934446=T 0.289694995=T pbc="F F F"
C        1.19066121      -0.62326385       0.53805358
C        2.41858682      -0.23528209      -0.30016280
C        2.67081459      -1.20512707      -1.45407643
O        1.57411077      -1.09114827      -2.37686871
N        2.32592470       1.11470293      -0.84586987
C        2.54784241       2.25923858      -0.11226504
N        3.01796039       2.41017542       1.07782477
H        1.01289816       0.12182656       1.32444382
H        1.33855760      -1.60268899       1.01641280
H        0.29688592      -0.67963778      -0.09758689
H        3.32078329      -0.27221145       0.33576362
H        2.74617450      -2.23296733      -1.05574117
H        3.62332899      -0.94122860      -1.94590301
H        1.77666095      -1.63113430      -3.15761167
H        1.77467374       1.19959637      -1.69680828
H        2.29898114       3.16600310      -0.68293344
H        3.21149482       1.50413676       1.52816872
