14
Properties=species:S:1:pos:R:3 -1485.3415076283077=T 10.745052=T 11.53872=T -10.0829=T -7.9561=T -9.789=T 0.2458=T -1.4828=T -0.08=T 9.27073=T 0.53729=T 5.0491810668=T 6.504367553=T 0.324896094=T pbc="F F F"
O        2.67850253      -0.93298939      -1.23115787
C        2.37802026      -0.21052520      -0.03315490
C        3.17561967       1.09229556      -0.05747988
C        4.67227611       0.88706217       0.04073946
C        5.54636708       1.20893948      -0.92985819
C        5.14587376       0.30262197       1.26221726
N        5.47719908      -0.17236868       2.27869714
H        2.28757073      -1.81929691      -1.15759402
H        2.64284291      -0.79568171       0.86604701
H        1.30166477       0.03511031       0.02373603
H        2.83801035       1.71677517       0.78529591
H        2.95163604       1.63442425      -0.98775843
H        5.19394397       1.64443440      -1.86503793
H        6.61626275       1.04092858      -0.81311158
