18
Properties=species:S:1:pos:R:3 -1813.382772850728=T 11.446336=T 12.57126=T -8.9581=T -6.8626=T -10.551=T 0.8994=T -0.0182=T 3.03=T 10.00862=T -2.68443=T 8.3869833756=T 11.3060725638=T 0.152142366=T pbc="F F F"
C        1.23747915       0.31287175       0.60982713
C        2.48326892      -0.11906152      -0.16329111
C        2.37750506      -1.53895466      -0.77914255
C        3.31543539      -1.54408528      -2.00732062
C        3.31683126      -0.09813976      -2.47152460
N        1.94880080       0.48687655      -2.54204156
C        2.81928271       0.75796681      -1.36323785
H        1.36188190       1.31379923       1.05050385
H        1.01400791      -0.38615599       1.42948492
H        0.36755561       0.34136115      -0.06309946
H        3.36003914      -0.08356200       0.50978162
H        1.34219853      -1.70511958      -1.10933377
H        2.62577876      -2.32530940      -0.05248167
H        4.34323101      -1.82583735      -1.72356912
H        2.98072824      -2.24395273      -2.78812739
H        4.07747047       0.25574428      -3.17148501
H        1.97571039       1.30390458      -3.16039176
H        3.19583474       1.77249390      -1.20836104
