13
Properties=species:S:1:pos:R:3 -1428.0864206326494=T 9.81974=T 10.66545=T -10.1915=T -7.9475=T -10.034=T 1.0931=T -0.4803=T 0.094=T 10.45721=T 0.54723=T 4.376209856=T 6.6855358962=T 0.451536826=T pbc="F F F"
C        1.22098612       0.06145348       1.08867523
C        1.87477503       0.41332526      -0.02260683
C        3.05445279       1.32374735      -0.06875001
C        2.82638073       2.78345930      -0.52938187
C        3.28756428       3.13459176       0.88137681
O        3.47584111       4.12066144       1.53770672
O        3.47576455       1.81419264       1.26861458
H        0.36131187      -0.60717087       1.04609198
H        1.53447069       0.42875852       2.06703463
H        1.56167690       0.02759442      -0.99917017
H        3.91729056       0.84229368      -0.55556668
H        1.78494290       3.05694047      -0.73672693
H        3.48507247       3.15941254      -1.32124746
