13
Properties=species:S:1:pos:R:3 -1367.814000497111=T 13.150033=T 12.27013=T -8.1515=T -6.3072=T -8.435=T -0.0798=T -1.6192=T -0.517=T 7.93768=T 1.07537=T 3.9639192102=T 4.1594947266=T 0.230014779=T pbc="F F F"
N        1.04136065      -0.24887347      -0.02802618
N        2.38933782      -0.12472141      -0.02574313
C        2.92450063       1.06804000      -0.16819810
C        2.17673877       2.31642309      -0.35736670
C        2.71252314       3.54956389      -0.31258967
C        4.35234267       1.11909163      -0.14546359
C        5.56270172       1.23771870      -0.11923340
H        0.76034895      -1.15072232       0.34672653
H        0.47528541       0.53013793       0.32018655
H        1.11363816       2.22027693      -0.59526417
H        3.77261042       3.69705641      -0.09940319
H        2.10212846       4.43394954      -0.49528023
H        6.63062321       1.30902909      -0.09605471
