22
Properties=species:S:1:pos:R:3 -2077.5378185094723=T 13.024995=T 14.4552=T -8.5937=T -6.4426=T -10.041=T 0.8926=T -0.04=T 3.067=T 9.32379=T -2.74954=T 8.146624116=T 10.7926341392=T 0.171656665=T pbc="F F F"
C        2.80879827      -1.28573035       1.20615621
C        2.14748593       0.09044408       1.31862099
C        2.87529299       1.22769914       0.57407000
C        2.07327756       2.53279887       0.65396246
C        4.32850749       1.43003324       1.04105246
N        4.43270236       1.78347488       2.45872503
C        5.81296431       2.02818997       2.86981156
H        2.20273683      -2.05661978       1.70356967
H        3.80810212      -1.30727209       1.66649255
H        2.92688824      -1.58469580       0.15289478
H        2.02731737       0.36629435       2.38165265
H        1.12084351       0.02883539       0.92012839
H        2.94210945       0.92776593      -0.48895584
H        2.03018905       2.89923001       1.68949642
H        1.04411512       2.38768316       0.29309072
H        2.53730290       3.32081166       0.04192267
H        4.76639498       2.26343166       0.46383848
H        4.93296117       0.53087256       0.78438482
H        4.05286427       1.01882968       3.02205860
H        6.19027698       2.93124190       2.36439827
H        6.51351863       1.19778679       2.63341529
H        5.85015047       2.21310476       3.95261382
