15
Properties=species:S:1:pos:R:3 -1525.3931388975825=T 9.902897=T 10.9295=T -11.4141=T -9.1101=T -11.664=T 0.7513=T -0.2216=T 1.561=T 11.12392=T -1.14085=T 5.3634607796=T 13.0646775892=T 0.463538994=T pbc="F F F"
C        0.96655749      -0.00048268      -0.01770229
C        2.51108646      -0.02521055       0.00007779
C        3.02244142      -0.72813452       1.27718585
C        3.05153705      -0.73891835      -1.25887493
C        3.00286584       1.36389032      -0.00012514
N        3.39236273       2.46405246      -0.00021620
H        0.59031565       0.50935802      -0.91459575
H        0.56993736       0.51652289       0.86621309
H        0.58731986      -1.03246189      -0.01789389
H        2.65665387      -0.22125655       2.18006603
H        4.12008587      -0.74074534       1.30814199
H        2.66100365      -1.76642474       1.28912165
H        2.70542395      -0.24070383      -2.17423893
H        2.69161719      -1.77774122      -1.26949471
H        4.14960161      -0.75039400      -1.26526457
