15
Properties=species:S:1:pos:R:3 -1459.471781396124=T 11.549712=T 11.7825=T -9.3555=T -7.3712=T -9.862=T 0.7343=T -0.9891=T 0.427=T 9.26012=T 0.11688=T 4.2472892132=T 5.8110006452=T 0.484804824=T pbc="F F F"
C        3.12978271      -1.15799441      -0.25501038
O        2.57733037       0.02000144       0.33458165
C        3.05472265       1.21544653      -0.28696773
C        4.49111056       1.50032962       0.04466349
N        5.35810810       1.65147551      -0.89243737
N        6.65961854       1.83217123      -0.58144275
C        7.14489445       3.01800305      -0.52552279
H        2.66540654      -2.00988652       0.25691621
H        4.22479409      -1.21287087      -0.13030171
H        2.89609345      -1.20955313      -1.33453874
H        2.41475102       2.01996500       0.10943684
H        2.93650934       1.17627867      -1.38562428
H        4.77648018       1.54745944       1.10804136
H        8.21475642       3.11537243      -0.33322807
H        6.53478159       3.92068201      -0.67252573
