13
Properties=species:S:1:pos:R:3 -1411.2372902206437=T 13.131125=T 14.11356=T -9.377=T -7.1935=T -8.733=T 0.6088=T -1.0572=T 0.958=T 8.50989=T -0.55068=T 3.2318438732=T 7.9852687356=T 2.005722989=T pbc="F F F"
C        0.99840530      -0.04380857       0.01464580
O        2.42174292      -0.04719140       0.01450351
C        2.93319874       1.28547759       0.00039067
C        4.38467650       1.27452474       0.00061385
C        5.60630575       1.31107336       0.00029546
C        6.96485711       1.34298968       0.00001108
C        8.18517343       1.37193985      -0.00025172
H        0.68116543      -1.09328585       0.02564992
H        0.59247524       0.44822696      -0.88918549
H        0.59270128       0.46701895       0.90809051
H        2.56945968       1.84837000       0.88606379
H        2.56958461       1.82944363      -0.89708195
H        9.25530401       1.39398104      -0.00044542
