16
Properties=species:S:1:pos:R:3 -1607.898689309904=T 11.65078=T 12.7078=T -9.3357=T -7.2099=T -9.912=T 0.9315=T -1.0827=T -0.059=T 10.12493=T 0.67853=T 3.6606618528=T 6.736345359=T 0.473503806=T pbc="F F F"
C        0.86148603      -0.94160017      -1.13737775
C        1.81438373      -0.59743919      -0.26452378
C        2.46927959       0.75178369      -0.21496823
N        3.92942404       0.62357062      -0.31846835
C        4.63624869       1.89530807      -0.23594479
C        6.12902865       1.68240864      -0.06328086
O        6.98363750       2.44117442      -0.47854568
H        0.40756253      -1.93338102      -1.12631242
H        0.49642486      -0.23565581      -1.88804333
H        2.17378685      -1.32286991       0.47278210
H        2.25722447       1.22388001       0.76194269
H        2.02735597       1.41143766      -0.99149007
H        4.15367693       0.16106019      -1.20379365
H        4.30328739       2.41056674       0.68586654
H        4.46527602       2.60185130      -1.07265382
H        6.39027673       0.75205477       0.50490139
