18
Properties=species:S:1:pos:R:3 -1742.1602838048484=T 11.201101=T 12.52497=T -8.7127=T -6.5355=T -10.2=T 0.9186=T -0.0863=T 3.106=T 9.49171=T -2.82456=T 8.3945589202=T 10.392010576=T 0.091792876=T pbc="F F F"
O        2.37939688       0.92204853      -1.67385445
C        2.26240662       1.73363186      -0.49204940
C        3.13184071       1.12670504       0.59933621
C        4.62170137       1.16729704       0.28840555
C        5.37739475       2.52271566       0.33591568
C        6.49963752       1.74631867       1.06310787
N        5.50787624       0.68380696       1.39256261
H        1.83585004       1.32557200      -2.37024969
H        1.21214237       1.77159582      -0.14911621
H        2.58579486       2.77182748      -0.70085710
H        2.81998376       0.08088759       0.75935537
H        2.95332139       1.66432507       1.54480454
H        4.81453577       0.65673770      -0.67332449
H        4.87870162       3.24491030       0.99848857
H        5.62608836       3.00381527      -0.61731720
H        7.29118763       1.42490495       0.36115800
H        6.96992619       2.21853231       1.93933598
H        5.85173393      -0.27246224       1.27267816
