11
Properties=species:S:1:pos:R:3 -1170.4139405353476=T 9.094301=T 9.41006=T -10.6133=T -8.6758=T -10.92=T 0.12=T -1.6732=T -0.92=T 10.11801=T 1.23305=T 4.0970925728=T 12.277775643=T 0.375586879=T pbc="F F F"
C        1.74641216       0.42073776      -0.80378819
C        2.49957242       0.03189888       0.54557102
C        3.06051260       1.45048107       0.52987302
N        3.77018465       2.44830763       0.98694514
O        3.52562035       3.45819431       0.01952106
N        2.65446357       3.02433157      -1.01492627
C        2.39708850       1.79309473      -0.66029995
H        0.65113512       0.41996629      -0.73516783
H        2.06023377      -0.14993784      -1.68705752
H        3.24948102      -0.76247157       0.44110500
H        1.83901583      -0.19456282       1.39210451
