13
Properties=species:S:1:pos:R:3 -1287.064208742672=T 7.821403=T 8.40968=T -9.3866=T -7.0869=T -11.386=T 0.9818=T 0.0257=T 3.189=T 10.71689=T -2.97943=T 9.211353891=T 11.5467045926=T 0.139951016=T pbc="F F F"
C       -0.80139535      -1.01491332      -0.20617521
C       -1.20112651       0.39396736       0.25446746
C        0.00588849       1.21623694      -0.20047300
O        1.15230935       0.34635967      -0.09807830
C        0.70325154      -1.01472035       0.07449300
H       -1.33134636      -1.81699190       0.32517548
H       -0.99165881      -1.13157377      -1.28450544
H       -1.29575249       0.42505309       1.35116631
H       -2.14484308       0.74692282      -0.18302598
H       -0.11081927       1.54477471      -1.25081613
H        0.18961115       2.10531678       0.42214909
H        1.27408158      -1.65973950      -0.61144898
H        0.91516976      -1.33635252       1.11154171
