15
Properties=species:S:1:pos:R:3 -1552.670846064013=T 10.421465=T 11.21285=T -8.243=T -6.1427=T -8.732=T 0.9283=T -0.1886=T 1.278=T 8.28515=T -0.67596=T 5.7118242438=T 0.248533353=T pbc="F F F"
O        2.50768394      -0.32223241       1.56705915
C        2.56451573      -0.04560082       0.14780193
C        2.91209995       1.38171975      -0.06184261
C        3.97902125       1.86981219      -0.71530964
O        4.03793121       3.23328576      -0.82736458
C        2.95618549       3.74892526       0.02245002
C        2.04036879       2.55296405       0.34995143
H        2.11370917      -1.20501399       1.67594886
H        1.57837289      -0.26358948      -0.30921421
H        3.31484663      -0.68838747      -0.34819732
H        4.80041288       1.33976604      -1.19602708
H        2.46672414       4.55988468      -0.53119552
H        3.42900567       4.16065109       0.92776095
H        1.09892856       2.56862397      -0.22851485
H        1.77301370       2.52149136       1.41556349
