16
Properties=species:S:1:pos:R:3 -1636.355409023039=T 10.737731=T 11.63698=T -8.5474=T -6.5686=T -9.948=T 0.9836=T 0.1294=T 2.95=T 9.55536=T -2.61335=T 7.8867742572=T 11.2291888452=T 0.168979155=T pbc="F F F"
C        1.75132252       0.00537209      -0.55261736
C        0.85127781       0.80700350       0.36511075
C        0.79509128      -0.71789783       0.35848985
N       -0.61286401      -1.03296269      -0.05473455
C       -0.86479028       0.00524360      -1.14194426
C       -0.61139825       1.06463228      -0.05409140
C       -1.31646672      -0.00165142       0.84755022
H        1.62938418       0.01832088      -1.63572138
H        2.79591450      -0.05257764      -0.24050111
H        1.27401794       1.38146750       1.18987206
H        1.17068680      -1.34045275       1.17020991
H       -1.91810076      -0.05561801      -1.44366293
H       -0.23013507      -0.05775660      -2.03374175
H       -0.94443477       2.10903761      -0.14347516
H       -1.03372352      -0.05723339       1.90873883
H       -2.40734164      -0.06709713       0.72268829
