16
Properties=species:S:1:pos:R:3 -1633.4374883434211=T 12.274373=T 12.42942=T -8.4181=T -6.5692=T -9.093=T 0.3394=T -1.2385=T -0.561=T 8.44303=T 1.25626=T 3.5086302196=T 4.488045228=T 0.476405216=T pbc="F F F"
C        2.28033060       0.01313567       1.52368437
C        2.89551158       0.26947436       0.13710606
C        3.14883182       1.73364816      -0.13474407
N        2.02595861       2.45861519      -0.44085214
C        4.42381781       2.24706323      -0.08395091
C        4.77483172       3.63420552      -0.25403905
O        5.91842976       4.09197329      -0.20325037
H        2.12787230      -1.06327912       1.68120576
H        1.30395734       0.50574845       1.64167857
H        2.94192017       0.38623925       2.31753540
H        2.23069220      -0.13135624      -0.64676801
H        3.84899132      -0.26838847       0.05204796
H        1.11877150       2.06070285      -0.22670525
H        2.06965368       3.47210970      -0.45845633
H        5.24757745       1.55912807       0.11000575
H        3.91840213       4.34252008      -0.44166773
