19
Properties=species:S:1:pos:R:3 -1814.3641081292835=T 11.236534=T 12.48286=T -9.8476=T -7.7853=T -11.746=T 0.9689=T 0.0582=T 3.163=T 11.00568=T -2.88131=T 9.4655623868=T 10.7186392944=T 0.128515146=T pbc="F F F"
C        3.98041730       6.44285832       1.36023144
O        5.17074396       5.76620465       0.94881169
C        5.57579996       6.11988967      -0.36116174
O        4.69411078       5.69078113      -1.37544364
C        4.71449634       4.25594501      -1.61275485
C        3.35084774       3.89043414      -2.18205854
C        5.85804624       3.88918957      -2.55680839
H        3.78440762       6.13593540       2.39456858
H        3.11986097       6.17402088       0.72677445
H        4.11854360       7.53931547       1.32581301
H        6.58034135       5.67747975      -0.47162071
H        5.62489431       7.21859517      -0.47118702
H        4.85082375       3.74893558      -0.64101843
H        3.17441981       4.42672856      -3.12625917
H        2.55149127       4.15789053      -1.47795736
H        3.29371979       2.81103962      -2.38119171
H        5.72552423       4.39054283      -3.52678802
H        5.88355479       2.80263077      -2.72531679
H        6.83421621       4.18322297      -2.14611280
