18
Properties=species:S:1:pos:R:3 -1702.409047475708=T 10.551705=T 11.5416=T -9.5113=T -7.249=T -10.721=T 0.6394=T -0.3868=T 2.731=T 10.16358=T -2.45544=T 8.587394346=T 12.083613567=T 0.091094704=T pbc="F F F"
N        2.42295889      -0.34107383       1.92985998
C        2.33196721      -0.29685636       0.45112419
C        3.33618066       0.70981329      -0.12287695
C        4.81251496       0.42902897       0.19966410
O        5.06824637       0.40222329       1.61573140
C        5.35669088      -0.86339827      -0.42475008
O        6.69494669      -1.09073399       0.00420622
H        1.88007554      -1.12478275       2.29832677
H        2.01769836       0.50952149       2.33092053
H        1.31721306      -0.04523706       0.08984225
H        2.55578440      -1.30860195       0.08095495
H        3.08909596       1.71761304       0.25252694
H        3.20910782       0.74795663      -1.21753684
H        5.42012146       1.26218410      -0.19477962
H        4.26258112      -0.01911018       2.01675002
H        5.37086217      -0.78432404      -1.52419385
H        4.71165415      -1.72333085      -0.15238346
H        6.68775030      -0.82661154       0.94846344
