19
Properties=species:S:1:pos:R:3 -1864.9913142417688=T 12.651482=T 14.21615=T -9.5711=T -7.3696=T -9.696=T 1.6438=T -0.0394=T 1.32=T 9.17191=T -0.77349=T 6.7764796272=T 0.453963514=T pbc="F F F"
C       -0.81991857       0.85468663      -1.37428690
C       -0.02009540       0.35178681      -0.17120284
C        1.47258882       0.59381614      -0.33460492
O        2.15343856       0.12697495       0.82811008
C        3.56320621       0.33660363       0.73896393
C        4.22623632      -0.24359188       1.94866337
C        5.07718275       0.42562411       2.73250079
H       -1.89447614       0.67022639      -1.23947988
H       -0.51058598       0.35096912      -2.30288589
H       -0.68495985       1.93716168      -1.52185264
H       -0.18909170      -0.72649943      -0.02253174
H       -0.35763068       0.85406633       0.74908372
H        1.67217569       1.67627352      -0.48164352
H        1.85446756       0.06672221      -1.23474669
H        3.79345376       1.41767878       0.64957958
H        3.95177766      -0.16046618      -0.17652504
H        3.98673179      -1.29054750       2.16103111
H        5.32047460       1.47451481       2.54402618
H        5.56438462      -0.05137013       3.58405131
