17
Properties=species:S:1:pos:R:3 -1748.9098025711307=T 12.675415=T 13.5767=T -9.3935=T -7.3698=T -10.111=T -0.0076=T -1.7204=T -0.778=T 9.47234=T 1.37517=T 3.4476043104=T 5.3466978724=T 0.60838418=T pbc="F F F"
C        1.73077212      -1.07171125       0.61044441
C        3.22369289      -0.75966647       0.50462020
C        3.49462695       0.66304981      -0.02438379
C        4.95098931       0.95786996      -0.16359109
C        5.62691156       1.94323625       0.46013177
C        7.06793759       2.11623724       0.25532196
O        7.75015043       2.98340856       0.78651915
H        1.56500271      -2.08866637       0.99260721
H        1.23637069      -0.99716855      -0.37001322
H        1.22466472      -0.37230808       1.29287252
H        3.71295746      -1.49175677      -0.15950798
H        3.70212599      -0.86962153       1.49118966
H        3.01749776       1.40722731       0.63323387
H        3.01694415       0.75995125      -1.01713997
H        5.51973819       0.29090701      -0.82666178
H        5.13424636       2.64624983       1.13862918
H        7.52893112       1.37209180      -0.44786212
