13
Properties=species:S:1:pos:R:3 -1447.4247408420154=T 9.674559=T 10.50646=T -9.0901=T -6.9889=T -9.472=T 1.1063=T -0.6504=T 0.132=T 10.32783=T 0.50875=T 4.3649147314=T 12.1922005058=T 0.310669298=T pbc="F F F"
C        0.96335279       0.00177206       0.10429538
C        2.44662282       0.02299497      -0.04796281
C        3.27478824      -1.01650716      -0.22035151
O        4.62623486      -0.67347671      -0.33203508
C        4.71515372       0.72048418      -0.22534210
O        5.76963934       1.29816125      -0.28706882
C        3.30129465       1.25947641      -0.03361366
H        0.57306890      -1.02363313       0.05921555
H        0.47082395       0.58759984      -0.68827009
H        0.65299500       0.44115928       1.06583618
H        3.07679001      -2.08323750      -0.28842283
H        3.07021946       1.97208950      -0.84160322
H        3.25213626       1.82588700       0.91023301
