18
Properties=species:S:1:pos:R:3 -1798.8416565578798=T 12.589187=T 13.56571=T -9.052=T -6.8554=T -9.383=T 1.2044=T 0.006=T 1.345=T 8.84588=T -0.74218=T 6.575411531=T 0.476178268=T pbc="F F F"
N        1.04415511      -0.43421893       0.46797158
C        2.36190869       0.08869862       0.11900656
C        2.88840867       1.29336099       0.93462307
C        4.28686568       0.62281238       0.92510304
C        3.58634005      -0.73993264       0.62397610
C        4.22931765      -1.71693071      -0.29766748
C        4.43338716      -3.01465241      -0.03318135
H        0.86109840      -1.28865323      -0.06742612
H        0.32052903       0.23433967       0.18711535
H        2.50011855       0.29344232      -0.96332491
H        2.44599371       1.28417797       1.94158023
H        2.78683805       2.29657527       0.49882334
H        4.89649094       0.95424323       0.07106422
H        4.89596510       0.67857596       1.83653976
H        3.29686196      -1.22647748       1.56984824
H        4.54837258      -1.31644148      -1.26927659
H        4.13465300      -3.45103907       0.92368871
H        4.90588569      -3.68057047      -0.75699373
