19
Properties=species:S:1:pos:R:3 -1806.371494273533=T 13.256857=T 14.29255=T -8.0822=T -6.1106=T -8.914=T 1.1261=T 0.0306=T 0.853=T 8.36569=T -0.25393=T 4.8884828122=T 5.3843896164=T 0.310333636=T pbc="F F F"
C        0.79168366      -0.83411194       0.92981887
C        2.22930235      -0.61764993       0.45480047
C        2.56599745       0.86181606       0.28387495
N        3.94376120       1.03206635      -0.17832069
N        4.37714494       2.33274080      -0.18329586
C        5.28415942       2.67683401      -1.02890929
C        5.86608531       4.05335476      -1.01945209
H        0.56744337      -1.90356829       1.04504972
H        0.06637115      -0.41604215       0.21531989
H        0.61688171      -0.34970384       1.90245021
H        2.37927600      -1.14082184      -0.50637540
H        2.94084728      -1.06511694       1.16699366
H        2.48565827       1.38938906       1.24652571
H        1.83753910       1.33558403      -0.40577057
H        4.13243785       0.52640288      -1.05621609
H        5.66810316       1.95552251      -1.77631294
H        5.38029030       4.66272088      -0.24691618
H        5.73733942       4.54717300      -1.99622482
H        6.94966805       4.02766058      -0.81814956
