19
Properties=species:S:1:pos:R:3 -1810.1612781613048=T 12.874964=T 13.62471=T -8.5914=T -6.5235=T -9.232=T 1.2854=T -0.0839=T 0.83=T 8.79608=T -0.23174=T 4.9475869384=T 5.6845845196=T 0.171139975=T pbc="F F F"
C        0.89648058      -0.39442571       0.13740513
C        2.36989785      -0.20784252      -0.24076956
C        2.79077178      -1.19293390      -1.33692012
C        2.66201950       1.24681273      -0.68008395
C        2.48582842       2.25651263       0.41061362
N        1.61225067       3.19544918       0.32535240
N        1.45351539       4.03482663       1.40874200
H        0.58576234       0.31184828       0.92006816
H        0.70915082      -1.41527453       0.50187048
H        0.24763176      -0.22444373      -0.73692748
H        2.98412747      -0.41482304       0.65598288
H        2.21381148      -1.02040496      -2.25981894
H        2.61507515      -2.23302867      -1.02467507
H        3.85808536      -1.08966594      -1.58440732
H        2.00709078       1.52290644      -1.52218829
H        3.70410488       1.29411946      -1.04554291
H        3.13059703       2.15887683       1.30769966
H        1.11359325       4.94145758       1.09296325
H        2.28768549       4.13411324       2.00261605
