11
Properties=species:S:1:pos:R:3 -1240.9764757177682=T 10.822064=T 10.68323=T -9.5352=T -7.5684=T -9.661=T -0.4724=T -2.305=T -1.298=T 9.13121=T 1.7751=T 3.9152051108=T 6.219447725=T 0.3410584=T pbc="F F F"
C        1.09514253      -0.26402232       0.03297128
C        2.43289246      -0.18551730       0.04006324
N        3.14176965       1.01841906      -0.01002872
C        4.51756654       1.07858529      -0.00349422
O        5.27545899       0.11963306       0.04572218
C        5.02288511       2.46069365      -0.06371805
N        5.47617134       3.53532138      -0.11007360
H        0.61126803      -1.23687409       0.07420978
H        0.45617758       0.61926844      -0.01277156
H        3.08302048      -1.05883992       0.08540183
H        2.62623730       1.89673275      -0.05407216
