13
Properties=species:S:1:pos:R:3 -1380.5780983755021=T 10.837086=T 11.24731=T -8.5999=T -6.6051=T -9.16=T 1.3894=T -0.3128=T 0.626=T 8.71313=T -0.00146999999998=T 4.3629557526=T 10.7989698238=T 0.621675417=T pbc="F F F"
C        0.94664458       0.02243801       0.02735738
C        2.16050945      -0.01798762       0.01513196
C        3.62259467      -0.01969468      -0.00077692
C        4.23081153      -1.21826207      -0.77960558
C        4.53429725      -0.55871230      -2.10363674
N        4.47934995       0.72824023      -2.07202178
N        4.19089706       1.14028376      -0.77023720
H       -0.12391591       0.05388409       0.03625584
H        3.99621328       0.02092980       1.03300253
H        3.54292764      -2.07007028      -0.85345315
H        5.15838689      -1.56759552      -0.29584717
H        4.83199475      -1.07335646      -3.01626381
H        3.57639885       1.95605304      -0.79713537
