10
Properties=species:S:1:pos:R:3 -1002.5287265094644=T 6.954757=T 7.06512=T -9.3228=T -7.1011=T -10.372=T 1.6308=T -0.2817=T 0.422=T 10.00928=T 0.12499=T 5.4376664006=T 12.05453885=T 0.184719181=T pbc="F F F"
C       -1.27120895      -0.01179942      -0.16005870
C       -0.40270687      -1.24925710       0.09062357
C        0.96381540      -0.62238137      -0.01351380
N        0.96394603       0.66132907      -0.06447491
O       -0.35696465       1.13411919      -0.04324821
H       -1.69404342       0.00191938      -1.17689228
H       -2.07208888       0.13537840       0.57484786
H       -0.56157641      -2.04413295      -0.65110008
H       -0.54857349      -1.69248960       1.08967831
H        1.91765125      -1.14838559      -0.00064176
