15
Properties=species:S:1:pos:R:3 -1551.2886621910325=T 10.497758=T 11.41797=T -8.4536=T -6.3209=T -8.881=T 0.8994=T -0.0018=T 1.252=T 8.3854=T -0.63876=T 5.9498029722=T 0.357539755=T pbc="F F F"
C        1.10258923      -0.07506310       0.31943518
C        2.37550555       0.17675724      -0.43192159
C        3.08310162       1.31107852      -0.36475327
C        2.84034152       2.56635868       0.44916111
O        3.72680415       3.52873554      -0.14398211
C        4.79979242       2.75379791      -0.63118606
O        4.23735112       1.52010061      -1.10276702
H        1.19801711      -0.94362163       0.99151462
H        0.26868654      -0.29869487      -0.36614309
H        0.80189237       0.78333724       0.93618648
H        2.75195916      -0.61624076      -1.08235995
H        3.08818200       2.41087740       1.51735589
H        1.81607107       2.95275571       0.36972773
H        5.27586099       3.27709938      -1.47067713
H        5.53228516       2.52830214       0.17166920
