13
Properties=species:S:1:pos:R:3 -1423.4783890947472=T 9.63598=T 10.41656=T -9.5856=T -7.5497=T -10.776=T 0.3713=T -1.5605=T -0.539=T 10.49333=T 1.1983=T 3.6449776238=T 8.0304120382=T 0.156334193=T pbc="F F F"
O        0.94786624       0.35054080       1.00663106
C        1.86363944       0.17044377       0.22240292
C        2.98579102       1.15883381       0.01610026
C        2.54515847       2.63848218      -0.26558834
C        3.56905538       3.07216338       0.78904739
O        4.13840963       4.11130588       1.02281430
C        3.71352913       1.64183707       1.32012517
H        1.90717014      -0.76346424      -0.39209214
H        3.69677421       0.79365280      -0.73697081
H        1.51959283       2.81165365       0.09780835
H        2.65776345       3.03968322      -1.28054234
H        4.72657085       1.27490147       1.52720595
H        3.06911922       1.48999621       2.20074824
