14
Properties=species:S:1:pos:R:3 -1466.1184544224072=T 9.377743=T 10.12925=T -9.5846=T -7.5313=T -10.753=T 0.7342=T -0.239=T 0.41=T 9.79931=T 0.26563=T 4.3483378032=T 6.3641889814=T 0.140763454=T pbc="F F F"
O        0.99942972       0.00720556      -0.04458739
C        2.41347259       0.05010605      -0.03670711
C        2.99978912       1.19293017       0.79453818
C        4.36394171       0.63371902       1.25625285
N        4.11649771      -0.80770136       1.30930826
C        3.00850821      -1.20568030       0.61959004
O        2.53294059      -2.33455239       0.52992036
H        0.77188047      -0.94624932      -0.05806339
H        2.80866591       0.08778045      -1.07478645
H        2.34197247       1.35557156       1.66110272
H        3.09808766       2.13667702       0.24481813
H        5.16542802       0.87406966       0.53611460
H        4.66342331       1.01833422       2.24119644
H        4.73836253      -1.47732036       1.75402276
