17
Properties=species:S:1:pos:R:3 -1639.4637351510519=T 11.163373=T 12.13528=T -8.6564=T -6.725=T -9.601=T 0.7689=T -0.2848=T 0.998=T 8.77892=T -0.37394=T 5.038357089=T 6.0368287456=T 0.165333268=T pbc="F F F"
C        1.35894884      -0.07577449      -0.53982359
C        2.81325566      -0.17455150      -0.09585549
N        3.51437815       1.07745560      -0.32918321
C        4.81488397       1.28640948       0.06187782
N        5.67151260       0.43141923       0.51461862
C        5.28531670       2.72163175      -0.14743459
O        4.25380244       3.70261617       0.04875873
H        0.84197879      -1.02891774      -0.36803458
H        1.28786082       0.16312512      -1.61034383
H        0.82263151       0.70156287       0.02466348
H        3.31862412      -0.97909178      -0.65804685
H        2.86561315      -0.45284366       0.97450847
H        2.96046704       1.92569762      -0.44353620
H        5.27318923      -0.51610774       0.55707445
H        5.60907811       2.83971470      -1.19264112
H        6.15640200       2.88922855       0.50199591
H        4.13386686       3.81108582       1.00857195
