10
Properties=species:S:1:pos:R:3 -1179.9301781932934=T 9.347881=T 9.25673=T -9.8388=T -7.8644=T -9.353=T -0.6981=T -2.5095=T -1.698=T 8.92122=T 2.14252=T 3.1940529404=T 3.7075657566=T 0.297632793=T pbc="F F F"
O        2.69751144      -1.07827161       0.05566701
C        2.16404499       0.01802267       0.00890986
C        2.88373404       1.29848448      -0.00305790
N        2.33828234       2.49313410      -0.05336023
C        3.40571455       3.36431872      -0.04272779
C        4.56971233       2.64361471       0.01472262
O        4.25627227       1.31811267       0.04066272
H        1.05903058       0.15963517      -0.03110895
H        3.27643359       4.44176844      -0.07630931
H        5.62404388       2.89516065       0.04189197
