13
Properties=species:S:1:pos:R:3 -1426.6039785405442=T 9.978665=T 10.24452=T -9.1773=T -7.1543=T -10.228=T -0.1734=T -1.8956=T -0.791=T 9.40699=T 1.38767=T 3.4546715124=T 5.3286455108=T 0.443670868=T pbc="F F F"
O        0.87033795      -0.04165594       0.05517980
C        2.09549280      -0.04937062      -0.02679167
C        2.90106305       1.24833237       0.02452685
O        4.17399389       1.15303111      -0.61579741
C        4.96533851       0.09200742      -0.09902033
C        4.24021434      -1.21575853      -0.03785806
C        2.89478194      -1.28544957      -0.07594812
H        2.34216260       2.04036024      -0.48957242
H        3.00781213       1.53933434       1.09169604
H        5.35511905       0.34288072       0.91419875
H        5.83945925       0.01224299      -0.76367932
H        4.85062155      -2.11998972       0.04761793
H        2.35192295      -2.23221481      -0.05895204
