17
Properties=species:S:1:pos:R:3 -1800.2730605174193=T 11.943992=T 12.84444=T -9.1499=T -6.9697=T -9.063=T 1.1606=T -0.0992=T 1.481=T 8.44221=T -0.82495=T 6.3290637476=T 0.382696193=T pbc="F F F"
C        1.52922007       0.02873450       1.10480044
C        2.30554377       0.00071774       0.01539815
C        2.84410309      -1.24761106      -0.66258856
C        4.16159461      -0.80324924      -1.28471730
C        5.11142720      -0.03575612      -0.39345333
C        4.17724235       0.71779601      -1.31278077
C        2.86944524       1.21179714      -0.70794344
H        1.20374320       0.97186496       1.54831373
H        1.18486226      -0.89063568       1.58331083
H        2.15277374      -1.56733085      -1.46334481
H        2.94332016      -2.08959645       0.03959301
H        4.57656655      -1.38029146      -2.11204921
H        4.91005041      -0.01389985       0.68069545
H        6.16865362      -0.05152946      -0.65948090
H        4.60374677       1.25527699      -2.16063108
H        2.98632639       2.07674575      -0.03724989
H        2.18458059       1.51601708      -1.52009230
