17
Properties=species:S:1:pos:R:3 -1770.9014202779056=T 13.069635=T 14.25727=T -9.0584=T -6.9189=T -8.792=T 0.9016=T -0.0592=T 1.303=T 8.20675=T -0.63675=T 4.3459696706=T 10.6331757446=T 0.754825115=T pbc="F F F"
C        0.79734575      -0.25281141       0.26737464
C        2.28604215      -0.09102619       0.21012141
C        2.98836117       1.02217527      -0.06822644
C        2.40377352       2.36825820      -0.39289406
C        4.51194811       0.97055727      -0.04778149
C        5.12944253       1.30059623      -1.33149147
C        5.63098498       1.57540157      -2.40263614
H        0.46133915      -1.01768512      -0.45135736
H        0.25328114       0.67436762       0.04901708
H        0.48006035      -0.60205642       1.26332727
H        2.85807577      -1.00202369       0.42255386
H        1.30843614       2.36136447      -0.42409649
H        2.77439849       2.72139152      -1.36785757
H        2.71813033       3.11783766       0.35271390
H        4.84505927      -0.03109747       0.26775932
H        4.89142187       1.67997120       0.71161608
H        6.07523929       1.81627928      -3.34655253
