17
Properties=species:S:1:pos:R:3 -1775.4156697757808=T 13.798148=T 14.36084=T -8.5608=T -6.5503=T -8.249=T 0.7408=T -0.742=T 0.663=T 7.78347=T -0.03432=T 4.0560532068=T 5.7431927018=T 0.40321413=T pbc="F F F"
C        2.07739968      -0.68936534       1.45148576
C        2.63337112      -0.18341234       0.10866643
C        2.99581491       1.28081891       0.10846082
C        1.87662208       2.27068008       0.25128450
C        4.29144380       1.66334064      -0.02119287
C        4.75855113       3.00044792      -0.03407624
C        5.20920928       4.13299316      -0.04928153
H        1.85379551      -1.76390921       1.39330723
H        1.14851089      -0.17245276       1.73052927
H        2.80691012      -0.53617304       2.25982528
H        1.87711136      -0.36175209      -0.67699790
H        3.51906893      -0.77713961      -0.16563637
H        1.12330330       2.11727747      -0.53881203
H        2.24107911       3.30330892       0.19369648
H        1.35324917       2.14350576       1.21219660
H        5.05868261       0.88920571      -0.12912911
H        5.59309699       5.13213583      -0.06146632
