14
Properties=species:S:1:pos:R:3 -1413.9865021001451=T 9.847578=T 10.5995=T -9.1387=T -7.1346=T -10.916=T 0.8192=T -0.196=T 0.069=T 9.96596=T 0.5843=T 4.3435023492=T 12.0938920064=T 0.32555505=T pbc="F F F"
O        0.97674966       1.84624551      -0.32823835
N        2.32051183       1.97902341       0.06958104
C        3.16657632       1.03719028      -0.46790579
O        2.67895924       0.06036420      -1.05972987
C        4.61586729       1.25790681      -0.23167118
C        5.49399684       0.02893425      -0.05626639
C        5.57683627       0.81522938      -1.32623453
H        1.04639883       0.99756509      -0.84884764
H        2.59612528       2.96062140       0.08601904
H        4.88209082       2.14605238       0.34469180
H        4.97611836      -0.92932140      -0.09504298
H        6.30588282       0.10593246       0.66627948
H        6.44709932       1.44749747      -1.50049480
H        5.11651714       0.38064876      -2.21355983
