15
Properties=species:S:1:pos:R:3 -1559.2701056657197=T 11.900081=T 12.84572=T -9.9161=T -7.7083=T -9.436=T 1.2203=T -0.4676=T 1.045=T 9.03057=T -0.51584=T 4.3457340972=T 10.663849881=T 0.427794958=T pbc="F F F"
C        2.55225699      -0.82877026      -0.92302407
O        2.28704039       0.02368992       0.18968874
C        2.83847014       1.34093264       0.02760075
C        2.34847007       2.17822623       1.18363648
C        1.65131551       3.30655658       1.03375259
C        4.30974209       1.32246244      -0.01439492
C        5.52343878       1.30241238      -0.04165450
H        2.05900621      -1.78352582      -0.70420507
H        3.63414944      -0.99798768      -1.05911465
H        2.13419807      -0.40984906      -1.85759707
H        2.46946741       1.78185702      -0.92236147
H        2.61322538       1.79865254       2.17409810
H        1.38841854       3.68869089       0.04445477
H        1.32422093       3.88987935       1.89515818
H        6.59415006       1.28614283      -0.06380785
