15
Properties=species:S:1:pos:R:3 -1516.0249713847268=T 11.66488=T 12.29191=T -9.4428=T -7.4982=T -10.166=T 0.876=T -0.9014=T -0.389=T 10.30208=T 0.86672=T 4.208146833=T 5.6021586268=T 0.438296896=T pbc="F F F"
C        1.93805034      -0.85926777       0.48063615
C        3.17454722      -0.27909676      -0.19681566
N        3.34242593       1.13529531       0.15301205
C        4.36290662       1.74065663      -0.30817840
N        4.58839271       3.08343642      -0.02346459
C        5.66017175       3.82021547      -0.48464696
O        5.84456072       4.99820618      -0.22623259
H        1.81071284      -1.91798377       0.21431771
H        1.03631426      -0.31222154       0.17254434
H        2.02251357      -0.78341216       1.57356834
H        3.07947590      -0.38486080      -1.29268126
H        4.06895005      -0.85502068       0.10342497
H        5.14317079       1.29482708      -0.95182291
H        3.90517518       3.55753326       0.57110418
H        6.34315211       3.21553312      -1.12343535
