11
Properties=species:S:1:pos:R:3 -1191.237875725958=T 11.075826=T 10.84737=T -9.3266=T -7.5682=T -10.008=T 0.1044=T -1.6774=T -0.525=T 9.64353=T 1.14121=T 3.8638625082=T 5.2870358092=T 0.474526151=T pbc="F F F"
C        1.35796190      -0.45916704       0.27442076
N        2.63175494      -0.59709528       0.36721076
N        3.39580616       0.50255429       0.16288594
C        4.78371058       0.48202589       0.23557687
O        5.43747871       1.50403624       0.04317786
C        5.38550380      -0.79693983       0.54609612
C        6.02005051      -1.80012647       0.79741652
H        0.74813179      -1.34718508       0.43997939
H        0.86226002       0.49597535       0.04037515
H        2.97959879       1.41658164      -0.05826205
H        6.56412281      -2.69562973       1.02064268
