16
Properties=species:S:1:pos:R:3 -1628.836421232584=T 10.585175=T 11.87074=T -10.6171=T -8.3422=T -11.775=T 0.6051=T -0.4573=T 1.466=T 11.32862=T -1.10243=T 5.3750658692=T 12.4275259338=T 0.155197417=T pbc="F F F"
C        1.15755177      -0.19252589       0.41324399
C        2.52083000      -0.02368084      -0.26397337
C        2.62817020      -0.83529001      -1.56533431
O        1.68734230      -0.43102695      -2.56812587
C        2.80379535       1.47630046      -0.52538555
C        4.18157727       1.73251006      -0.93138874
N        5.29097181       1.91240985      -1.24472231
H        1.12383790       0.33038915       1.37949184
H        0.94263811      -1.25463973       0.60243608
H        0.34644202       0.21731738      -0.20864594
H        3.30350906      -0.40719883       0.41310913
H        2.52299839      -1.91039426      -1.33376749
H        3.62091444      -0.68788386      -2.01557397
H        0.81611683      -0.79033790      -2.32866906
H        2.59703664       2.06885146       0.37924871
H        2.13108792       1.83866992      -1.31950314
