17
Properties=species:S:1:pos:R:3 -1680.446958035184=T 11.208159=T 12.27313=T -9.1198=T -6.944=T -9.602=T 0.9181=T 0.0065=T 1.098=T 9.14006=T -0.61632=T 6.4308562536=T 0.361067988=T pbc="F F F"
C        0.81824522       1.02141051      -2.25026136
C        0.71679373      -0.08716265      -1.21454394
O        0.40490750      -1.30236597      -1.90768279
C        2.01326143      -0.23298415      -0.42853553
O        1.82029750      -1.30305896       0.51370651
C        2.88856012      -1.62705914       1.29935621
C        4.10244248      -1.05721390       1.32338786
H        1.00113076       1.99245185      -1.76947697
H       -0.11914802       1.08665092      -2.81721999
H        1.63363918       0.81485984      -2.95832052
H       -0.09266203       0.15069144      -0.49531744
H        0.45175890      -2.01824428      -1.24754796
H        2.25488251       0.69923561       0.11250068
H        2.84619748      -0.48727452      -1.10855055
H        2.62335328      -2.45898048       1.95543452
H        4.39377621      -0.22722665       0.68290539
H        4.84210375      -1.44319950       2.02158587
