20
Properties=species:S:1:pos:R:3 -1939.3286685496207=T 12.442053=T 13.99795=T -8.8646=T -6.8126=T -10.446=T 0.8644=T -0.036=T 2.876=T 9.9011=T -2.57354=T 8.2209785202=T 11.1641705868=T 0.240312109=T pbc="F F F"
C        2.86728969      -1.00453576      -0.45548968
C        2.34356572       0.23333278       0.28305939
C        3.37995773       1.33201891       0.36424214
N        3.64655305       2.23524592      -0.79122841
C        3.08038642       2.79300225       0.47127076
C        1.65568645       3.30913102       0.47738977
C        4.05518620       3.67131586       1.23195046
H        2.10127839      -1.79103068      -0.50810792
H        3.74658689      -1.42615134       0.05445446
H        3.17022582      -0.75559740      -1.48332945
H        2.04099945      -0.04997887       1.30654816
H        1.43327858       0.60139027      -0.21671224
H        4.31118404       1.00505415       0.84596328
H        2.87850626       2.11857056      -1.46520873
H        0.96115072       2.64743768      -0.05626053
H        1.61100968       4.30024864      -0.00157990
H        1.28543630       3.42537133       1.50829807
H        5.07634931       3.27749218       1.14707966
H        3.78646029       3.72722146       2.29817371
H        4.05267901       4.69481105       0.82559699
