19
Properties=species:S:1:pos:R:3 -1779.9368413491218=T 11.42702=T 12.86306=T -8.6312=T -6.4513=T -10.057=T 0.9943=T 0.0555=T 3.202=T 9.34381=T -2.95431=T 8.1741738052=T 11.4174739848=T 0.26174699=T pbc="F F F"
C        0.95956120      -0.11389207       0.01007409
C        2.48819178      -0.05439158       0.01231652
C        3.03476091       1.37581942       0.01081667
C        4.56087771       1.43789867       0.01541924
N        5.04575869       2.81729448      -0.02742207
C        6.50193022       2.90675499       0.03289851
H        0.59749924      -1.15209408       0.01109043
H        0.54360284       0.38440489      -0.87894048
H        0.54037149       0.38676993       0.89640522
H        2.87801977      -0.59140091      -0.86965072
H        2.87641132      -0.59346026       0.89363652
H        2.64684167       1.91270575       0.89637825
H        2.66140516       1.92244839      -0.87119875
H        4.95141279       0.91971390      -0.87892076
H        4.95228661       0.87487358       0.89450796
H        4.64494940       3.33148286       0.76152137
H        6.93237065       2.47448334      -0.88408126
H        6.95746506       2.37641425       0.89698113
H        6.80652350       3.96186445       0.07538811
