14
Properties=species:S:1:pos:R:3 -1428.5415132592507=T 13.000237=T 13.53251=T -8.6143=T -6.6831=T -9.286=T 0.4518=T -1.187=T -0.16=T 8.7653=T 0.73585=T 3.6598063494=T 5.849597487=T 0.358231477=T pbc="F F F"
C        1.10270791      -0.09805661      -0.68910157
O        2.48511552      -0.10392731      -0.30668265
N        2.97615530       1.20584717      -0.38009788
C        4.22806389       1.23203858      -0.03800711
C        4.94878955       2.44630861      -0.03227597
C        5.64314348       3.44860101      -0.00051482
C        6.44871746       4.65554598       0.02862648
H        0.77800683      -1.14265835      -0.61228694
H        0.98476986       0.25903386      -1.72277611
H        0.51165807       0.53222390      -0.00845137
H        4.74435184       0.30608430       0.25267270
H        5.82126909       5.55101343      -0.08935314
H        7.19204327       4.65505947      -0.78315790
H        6.99319792       4.74568595       0.98057629
