18
Properties=species:S:1:pos:R:3 -1712.018301264004=T 10.443657=T 11.43725=T -9.3732=T -7.2854=T -11.427=T 0.9269=T -0.0114=T 2.876=T 10.68246=T -2.55434=T 9.0293796388=T 11.595356699=T 0.115629617=T pbc="F F F"
C        0.97584034      -0.05629483      -0.01697652
O        2.38476611       0.12521572      -0.00734197
C        2.87046357       1.49656264      -0.01873047
C        2.42643861       2.22718087      -1.29461820
C        2.40936730       2.25383618       1.23540922
C        4.39226833       1.32985997      -0.00671582
H        0.81151130      -1.14196339      -0.00418479
H        0.49801612       0.35461940      -0.92435352
H        0.48258738       0.37806739       0.87100332
H        2.71470524       1.64982366      -2.18480487
H        2.90699989       3.21435767      -1.35281702
H        1.33961779       2.39034370      -1.31952624
H        2.68603662       1.69555877       2.14129346
H        1.32225776       2.41679727       1.24249729
H        2.88876710       3.24232837       1.27905256
H        4.70570869       0.77976722       0.89140545
H        4.89183980       2.30842121      -0.01331324
H        4.71776805       0.76161816      -0.88911862
