17
Properties=species:S:1:pos:R:3 -1653.5966237018151=T 11.009493=T 11.96305=T -8.6592=T -6.7115=T -9.929=T 0.6984=T -0.253=T 0.793=T 9.47937=T -0.15296=T 4.7068061264=T 12.7003075324=T 0.164531742=T pbc="F F F"
C        1.40831312      -0.31257581      -0.58009607
N        2.85404574      -0.12600013      -0.56795203
C        3.34309879       1.15805554      -0.33456684
O        2.59750213       2.14239381      -0.29628297
N        4.72412332       1.25256844      -0.20943400
C        5.61130137       0.10520901      -0.27825825
C        5.29379866       2.51335743       0.23994194
H        1.18583117      -1.31779975      -0.96039363
H        0.95805769       0.42992465      -1.24856850
H        0.95090573      -0.18996684       0.41590180
H        3.39330575      -0.90107706      -0.19452213
H        5.29723170      -0.58147906      -1.07629277
H        5.67959397      -0.45216749       0.67666281
H        6.62273294       0.45343259      -0.52879327
H        4.49944375       3.26672819       0.22860117
H        6.10550348       2.82986385      -0.43362747
H        5.70030068       2.43042262       1.26343018
