17
Properties=species:S:1:pos:R:3 -1808.1348565090386=T 12.554697=T 12.9516=T -8.1997=T -6.1292=T -8.062=T 0.6436=T -0.8684=T 0.507=T 7.6505=T 0.07855=T 4.4649590348=T 7.3021678686=T 0.435449949=T pbc="F F F"
C        0.95947674      -0.01473958       0.44342789
C        2.41150454       0.00145712      -0.04396876
C        2.72841457       1.27076399      -0.85290957
C        4.08137305       1.20404078      -1.51589206
C        4.57460705       0.01682578      -1.92550762
C        3.81462898      -1.21237276      -1.70442530
C        2.77815344      -1.23195638      -0.84032858
H        0.74181243       0.86279485       1.06997951
H        0.75078274      -0.91411599       1.04134941
H        0.26088606      -0.00458064      -0.40752721
H        3.06919502       0.00243718       0.85231802
H        2.65099841       2.15602335      -0.20327308
H        1.95724186       1.40120136      -1.64168990
H        4.61882506       2.13287747      -1.71910361
H        5.52995204      -0.03850929      -2.45171596
H        4.11262315      -2.11974090      -2.23461483
H        2.23011486      -2.15837635      -0.64607835
