12
Properties=species:S:1:pos:R:3 -1310.9821502583275=T 9.121759=T 9.86554=T -9.0695=T -7.0199=T -8.638=T 1.5279=T -0.2348=T 0.177=T 8.16062=T 0.42886=T 4.3833142538=T 11.2631610092=T 0.381904207=T pbc="F F F"
O        1.36708154      -0.22045220      -0.77287410
C        2.60181389      -0.08299461      -0.06479441
C        2.96848490       1.36384333      -0.03869802
C        2.30823486       2.43281870      -0.56405026
O        3.04487657       3.56683726      -0.28325310
C        4.12299759       3.09527878       0.40766074
N        4.13508835       1.80661286       0.58368231
H        1.13482874      -1.16285056      -0.78426540
H        3.41652723      -0.65109244      -0.55174797
H        2.51859662      -0.45246431       0.97452177
H        1.38866045       2.56486176      -1.11838981
H        4.85141926       3.82988144       0.73637826
