17
Properties=species:S:1:pos:R:3 -1686.8018502184539=T 11.55176=T 12.0768=T -8.1415=T -6.1624=T -8.919=T 0.9306=T -0.113=T 0.862=T 8.37837=T -0.24354=T 4.7399723814=T 11.099970636=T 0.259098451=T pbc="F F F"
C        1.00069852      -0.06190752       0.48637984
C        2.39688435       0.00687758      -0.11985199
C        2.64560331       1.29043834      -0.91817328
C        4.05331453       1.26014085      -1.52846206
C        4.43284681      -0.13100812      -1.96817194
N        3.76826431      -1.21594851      -1.74367278
N        2.58774033      -1.12219312      -1.03989523
H        0.85362117       0.75659793       1.20503682
H        0.84421892      -1.00910738       1.02491989
H        0.23391210       0.01737676      -0.29783527
H        3.15272775      -0.04220572       0.69416667
H        2.51266102       2.17070309      -0.27167988
H        1.88803892       1.34879810      -1.71609796
H        4.80519066       1.63091338      -0.80884006
H        4.11430437       1.94208205      -2.39362763
H        5.34039231      -0.26199155      -2.56561866
H        2.37450063      -2.03055616      -0.63032648
