17
Properties=species:S:1:pos:R:3 -1691.1838834918005=T 11.736305=T 12.23699=T -8.8745=T -6.6786=T -9.095=T 0.91=T -0.2939=T 1.406=T 8.58145=T -0.75919=T 6.2020648878=T 0.299259963=T pbc="F F F"
N        0.96379895      -0.01829239      -0.00479501
C        2.44760965      -0.01160867      -0.05683201
C        3.01655465      -1.28923504       0.60462517
C        3.34580733      -0.90803338       2.07714361
N        4.52938305      -1.52320260       2.69439295
C        3.45683719       0.59794319       1.99762629
C        2.98863285       1.08255785       0.84104720
H        0.60542183      -0.63859885      -0.73700627
H        0.60826978       0.91504542      -0.23073885
H        2.82712421       0.10371920      -1.09248356
H        3.95756121      -1.57195642       0.10499082
H        2.32033507      -2.13690349       0.52529287
H        2.49256299      -1.15847755       2.73354305
H        5.33613222      -1.41215296       2.07221984
H        4.38232007      -2.53013627       2.79948121
H        3.85254446       1.18472678       2.82828676
H        2.93148450       2.14025517       0.57478591
