14
Properties=species:S:1:pos:R:3 -1475.9731966477054=T 12.750232=T 13.40833=T -9.0142=T -7.2469=T -9.501=T 0.6069=T -0.97=T -0.258=T 8.77868=T 0.81532=T 4.8520805226=T 11.1908647726=T 0.304034043=T pbc="F F F"
C        0.93002260      -0.15218295      -0.05425927
C        2.45631290      -0.00736049       0.05036251
C        2.90549895       1.43020190       0.03694131
N        3.19856153       2.03075244       1.19012991
S        3.62518568       3.62662786       0.88587757
C        3.41728761       3.51785880      -0.81954273
C        3.01673329       2.24084517      -1.13554774
H        0.64011258      -1.21245501      -0.04667232
H        0.54623997       0.29762064      -0.98144657
H        0.43505062       0.34497646       0.79162126
H        2.93901691      -0.54140639      -0.78368030
H        2.81325699      -0.46685122       0.98265418
H        3.59908478       4.36051907      -1.48198732
H        2.81673559       1.89185373      -2.14774049
