13
Properties=species:S:1:pos:R:3 -1424.734563354393=T 12.906503=T 13.65074=T -9.4726=T -7.3288=T -8.831=T 0.5423=T -1.1001=T 0.826=T 8.43675=T -0.41303=T 3.2100843302=T 7.9527348092=T 2.03667356=T pbc="F F F"
C        0.97741857      -0.02581408       0.00744616
C        2.51100061       0.02022807      -0.03071735
O        3.04460199      -0.70355884      -1.15568843
C        3.01106376       1.39389420       0.00850903
C        3.41296478       2.55007010      -0.00284162
C        3.86528779       3.83139454      -0.00402603
C        4.27036285       4.98304007      -0.00342628
H        0.59640623       0.44470571       0.92422410
H        0.64960620      -1.07289776      -0.02299895
H        0.55336665       0.50754470      -0.85502671
H        2.90668657      -0.51825367       0.84763148
H        2.87075110      -0.16944891      -1.95275227
H        4.62735290       5.99204587      -0.00138313
