19
Properties=species:S:1:pos:R:3 -1877.8685372953296=T 12.505177=T 13.98707=T -9.2838=T -7.074=T -9.15=T 0.9229=T -0.0129=T 1.326=T 8.62521=T -0.69682=T 6.2971993456=T 0.417095057=T pbc="F F F"
C        0.96888079      -0.14043440      -0.35342580
C        2.43788475      -0.12983277       0.06699277
C        3.05273613       1.28218888       0.09339225
O        2.35285561       2.14826845       0.99742124
C        4.53887650       1.23173658       0.35195015
C        5.20504480       2.00509840       1.21929828
C        6.67971875       1.93817544       1.47461095
H        0.55040568      -1.15567966      -0.31112969
H        0.85165594       0.22827207      -1.38406668
H        0.36968499       0.50695872       0.30121029
H        3.03383085      -0.75557241      -0.61852712
H        2.55634678      -0.57715360       1.07029907
H        2.88355430       1.74262741      -0.89882854
H        2.52515674       1.81279645       1.89754669
H        5.09023939       0.48712757      -0.23565023
H        4.64311909       2.76300267       1.77689655
H        7.16457453       1.16424617       0.86319720
H        6.89223900       1.72093818       2.53390195
H        7.16233541       2.90371586       1.25284067
