18
Properties=species:S:1:pos:R:3 -1795.9390269660494=T 12.678801=T 13.86637=T -8.9028=T -6.8147=T -8.926=T 1.1174=T -0.07=T 1.414=T 8.41572=T -0.75606=T 6.186715421=T 0.395385204=T pbc="F F F"
N        1.68364820      -0.13928885      -1.22913995
C        2.52802254       0.04733235      -0.03419910
C        3.11402508       1.42891829      -0.01903885
C        4.42676750       1.69284190       0.06286697
C        5.06151230       3.03524141       0.06323322
C        5.48020306       3.68612197      -1.24868811
C        4.35296062       4.27084463      -0.43072706
H        1.23516536      -1.05799293      -1.19971341
H        2.27296611      -0.12801220      -2.06596749
H        3.34346539      -0.69584943       0.07542253
H        1.86869817      -0.07194976       0.84408735
H        2.39003035       2.24700429      -0.09476954
H        5.12292541       0.84698589       0.13937693
H        5.77069193       3.19275650       0.88183853
H        5.21056960       3.16135874      -2.16600105
H        6.43452746       4.21311636      -1.28039515
H        4.53071030       5.20634045       0.10040794
H        3.34199063       4.15900037      -0.82349374
