14
Properties=species:S:1:pos:R:3 -1395.43644363325=T 8.926742=T 9.86761=T -9.5418=T -7.288=T -10.876=T 1.2051=T -0.8318=T 0.049=T 10.01193=T 0.56131=T 3.6725769074=T 8.2923820576=T 0.130784415=T pbc="F F F"
C        1.07608974      -0.36739507       0.57872848
C        2.17094554      -0.15096969      -0.46209424
O        1.97215591      -0.97926569      -1.62329154
C        2.19920757       1.29796029      -0.96799924
C        3.34740769       1.57284656      -1.91166601
O        4.14496805       2.48312704      -1.76762005
H        1.24284396       0.26486597       1.46286263
H        1.06292305      -1.41488220       0.91609144
H        0.09071845      -0.12884798       0.15327725
H        3.15416928      -0.38255584      -0.00601280
H        2.00173162      -1.90787683      -1.33591846
H        2.25618223       2.00358933      -0.12798545
H        1.25783705       1.47635563      -1.51918695
H        3.42737987       0.87023847      -2.77731507
