11
Properties=species:S:1:pos:R:3 -1171.9051881649987=T 13.437015=T 13.62386=T -7.8947=T -6.1612=T -8.534=T 0.8758=T -0.6275=T -0.242=T 7.89978=T 0.83796=T 3.9332822696=T 5.8728820578=T 0.341207358=T pbc="F F F"
N        0.93991325      -0.00736586      -0.20960014
C        2.32593327       0.06347221      -0.06812191
C        3.09636463       1.20932755      -0.02237453
S        4.79422884       0.85530873       0.05546851
C        4.50697158      -0.84556900       0.03330503
C        3.16177400      -1.10436965      -0.03305009
Cl       2.48148068      -2.71444656      -0.05210469
H        0.43411503       0.78167083       0.18416860
H        0.55107965      -0.89677499       0.10076331
H        2.76236050       2.24203161      -0.04725870
H        5.32560859      -1.55529488       0.07667461
