17
Properties=species:S:1:pos:R:3 -1718.1003295316964=T 10.977236=T 12.25441=T -9.1788=T -7.0573=T -10.443=T 0.9762=T 0.1308=T 2.715=T 10.10263=T -2.41782=T 8.2723707172=T 11.7863323348=T 0.13783805=T pbc="F F F"
C       -1.67757200       0.69224894       0.24777367
C       -1.62735989      -0.75586460      -0.38445325
C       -0.15652087      -0.74577705       0.10881299
O        1.07530566      -1.21046334      -0.43493885
C        2.01906647      -0.16888620       0.00954145
C        1.21206234       1.08483143       0.55087923
C       -0.14211291       0.74458080      -0.05360898
H       -2.31301224       1.43731510      -0.24546793
H       -1.91288392       0.65514279       1.32067728
H       -1.70653955      -0.70339211      -1.47928691
H       -2.30101454      -1.52676990       0.01054310
H       -0.19484239      -0.99842417       1.19108243
H        2.66604213      -0.58918743       0.79590851
H        2.64081484       0.08989534      -0.86028486
H        1.18895041       1.08425327       1.65043277
H        1.66709854       2.02498715       0.20935693
H       -0.07602208       0.92491996      -1.14180759
