13
Properties=species:S:1:pos:R:3 -1317.758671271732=T 8.879038=T 9.58572=T -9.2546=T -7.1967=T -10.622=T 1.0987=T -0.7367=T 0.115=T 9.64421=T 0.57912=T 3.7264116286=T 12.0744634002=T 0.209252471=T pbc="F F F"
C        1.97973893      -0.38975050      -1.54336306
C        2.77785341      -0.17705067      -0.27636021
O        3.00910190      -1.08137595       0.51763360
C        3.32747971       1.19596645      -0.00657879
C        3.96093666       2.02219656      -1.09011055
N        2.62419987       2.36408366      -0.60045166
H        2.67287695      -0.61258160      -2.37009371
H        1.41054037       0.50906690      -1.81280069
H        1.32209007      -1.25588813      -1.41336927
H        3.75462359       1.29088872       0.99521317
H        3.98984336       1.63706795      -2.11192670
H        4.81860005       2.63299316      -0.79873035
H        2.67673512       3.14890345       0.05643822
