18
Properties=species:S:1:pos:R:3 -1746.247490434054=T 11.331215=T 12.67438=T -9.2857=T -7.0852=T -10.645=T 0.8521=T -0.1009=T 2.911=T 10.02554=T -2.58163=T 8.4962770346=T 10.4991096828=T 0.16353287=T pbc="F F F"
C        1.10684641       0.12626059       0.19620966
C        2.59918587       0.00146861      -0.14802325
N        2.87453599      -0.61571890      -1.46339397
C        3.29387362       1.34766704      -0.08133438
C        3.77824862       1.92239449       1.24059821
C        4.76597407       1.43609511       0.22316306
O        5.56122129       2.42389869      -0.39922069
H        0.96132781       0.56347304       1.19591751
H        0.61389589      -0.85746040       0.17938619
H        0.59486342       0.77465838      -0.53275320
H        3.07212578      -0.65560577       0.60472036
H        2.43200063      -0.04958091      -2.19539096
H        2.41658786      -1.53061816      -1.51136016
H        2.92822791       2.09452497      -0.79480999
H        3.64261917       1.33428247       2.15000525
H        3.70642034       3.00243267       1.37055353
H        5.28276737       0.49176587       0.43040531
H        5.75676795       2.10737220      -1.29949247
