18
Properties=species:S:1:pos:R:3 -1793.6444665673525=T 12.966752=T 14.23571=T -8.7086=T -6.7164=T -8.91=T 1.0071=T 0.049=T 1.325=T 8.40551=T -0.67342=T 6.1479326002=T 0.471219198=T pbc="F F F"
C        2.40986800      -1.14857863       0.70605003
C        3.33652369      -0.37468368      -0.24468411
C        3.26728892       1.11156311      -0.04929559
C        4.29884062       1.89626317       0.29700493
C        4.20653981       3.35465266       0.50748079
C        4.99275615       4.05055009       1.57476375
N        5.41925740       4.15416630       0.16846359
H        2.46036095      -2.22996220       0.51378632
H        1.36224557      -0.83477041       0.58253634
H        2.68877319      -0.97312916       1.75507840
H        3.05636883      -0.61632314      -1.28556672
H        4.37661257      -0.71404853      -0.11479431
H        2.28054986       1.57195303      -0.19412882
H        5.29448513       1.45985012       0.43976095
H        3.23230966       3.79767708       0.27387621
H        5.66226522       3.46486664       2.20958935
H        4.52919921       4.91214705       2.06268230
H        5.12741523       5.05783650      -0.21696339
