19
Properties=species:S:1:pos:R:3 -1951.7682504181116=T 12.603332=T 13.62247=T -8.6553=T -6.5452=T -8.65=T 0.9299=T 0.011=T 1.534=T 8.0795=T -0.83355=T 5.988089849=T 0.348302839=T pbc="F F F"
C        0.95310469      -0.01629097       0.04118540
C        2.45564892       0.01743226      -0.00758766
C        3.14416218       1.16090834      -0.17571365
C        4.64727902       1.25436710      -0.19249078
C        5.31679847      -0.02075015       0.33526822
C        4.63938501      -1.26505892      -0.24532327
C        3.15812140      -1.31375090       0.14861654
H        0.54369652      -0.64590145      -0.76668441
H        0.51920786       0.98858647      -0.05218184
H        0.59774115      -0.45620116       0.98859936
H        2.58795939       2.09574634      -0.30640732
H        4.99188674       1.46228497      -1.22367581
H        4.96886960       2.12629323       0.40218339
H        6.39157319      -0.01439242       0.09643236
H        5.23438238      -0.04531993       1.43583336
H        5.15098750      -2.18060348       0.08965281
H        4.72113475      -1.24009492      -1.34582641
H        3.05324999      -1.65165652       1.19766507
H        2.63004121      -2.07356788      -0.45410537
