14
Properties=species:S:1:pos:R:3 -1495.7770144245944=T 10.643599=T 11.24525=T -8.5571=T -6.5014=T -8.301=T 1.0495=T -0.1718=T 0.531=T 7.7953=T 0.00519999999997=T 4.5724548968=T 6.7010589434=T 0.443445989=T pbc="F F F"
N        2.09244335      -0.47272144      -1.35716280
C        2.46502474      -0.06048915       0.01297391
C        2.98150693       1.35060482       0.02863337
C        2.24979110       2.50385438      -0.07137271
O        3.06575441       3.60493499      -0.06168011
C        4.35080474       3.13744130       0.04533931
C        4.35477997       1.77324293       0.10324247
H        1.85113039      -1.46766052      -1.36082715
H        2.90373870      -0.36961778      -1.97321099
H        3.22576682      -0.71059139       0.48851948
H        1.55891810      -0.13092504       0.63573728
H        1.18777391       2.70274032      -0.16439712
H        5.12659443       3.89440557       0.07232377
H        5.22958242       1.13567101       0.19858129
