14
Properties=species:S:1:pos:R:3 -1479.8761640358514=T 9.766628=T 10.59378=T -9.2774=T -7.1904=T -10.295=T 1.2291=T -0.5707=T 0.576=T 9.52369=T 0.18329=T 3.9988088706=T 12.074066645=T 0.158528733=T pbc="F F F"
O        1.10975285       0.02127749       0.27146208
C        2.30479382       0.01122852       0.14413972
C        3.44097671      -1.02495192      -0.04611077
C        4.20539751      -0.82988024       1.28875472
C        4.22381477       0.73959614       1.33469378
C        3.46475307       1.03028119       0.01426294
N        4.00004268       0.02445816      -0.97310532
H        3.28215949      -2.03536903      -0.43731708
H        3.68411309      -1.27855612       2.14680607
H        5.21285225      -1.26675578       1.23622182
H        5.24132918       1.15491891       1.30655970
H        3.71313349       1.14944067       2.21815806
H        3.32957329       2.06533570      -0.31678801
H        5.02931780       0.01289631      -0.98356772
