21
Properties=species:S:1:pos:R:3 -2067.447500048275=T 13.376521=T 14.68238=T -9.404=T -7.3305=T -9.399=T 0.9626=T 0.1123=T 1.398=T 8.8221=T -0.80499=T 6.600518696=T 0.429881143=T pbc="F F F"
C        2.93469587      -0.94294548      -0.96911788
C        2.58978872      -0.15880339       0.29743052
C        3.13395802       1.28775277       0.31563779
C        2.57886894       2.05833347       1.53492592
C        2.91807017       3.54936207       1.54247954
C        4.63877670       1.29764367       0.31063471
C        5.41977197       1.82608556      -0.63872979
H        2.52208725      -1.96121858      -0.92903577
H        4.02222942      -1.02273969      -1.10919462
H        2.52217768      -0.45032199      -1.86345996
H        2.97304296      -0.69320946       1.18498525
H        1.49409939      -0.11440334       0.41733293
H        2.78211822       1.79788423      -0.60151065
H        2.95773584       1.58319612       2.45747521
H        1.48346639       1.92878498       1.55252168
H        4.00499192       3.71477342       1.54510326
H        2.49683355       4.04670939       2.42791227
H        2.51028112       4.05189553       0.65139095
H        5.11134421       0.81857838       1.17946684
H        4.99264975       2.31215347      -1.52008150
H        6.50850190       1.79281888      -0.57044670
