19
Properties=species:S:1:pos:R:3 -1807.389564309285=T 12.138557=T 13.13985=T -8.3437=T -6.3357=T -9.802=T 0.9391=T 0.0173=T 3.27=T 9.03=T -3.01614=T 7.8867990544=T 10.7653572192=T 0.11154171=T pbc="F F F"
C        2.28358517      -0.49484149      -1.39814095
C        2.38038409       0.07405924       0.01428831
N        3.20786021       1.26870608       0.06539828
C        2.67412416       2.51993425      -0.53372028
C        3.32513172       3.32022332       0.62183189
N        4.59132859       3.93396491       0.23765712
C        3.35085200       1.95097977       1.37270386
H        1.66703671      -1.40470261      -1.40736787
H        3.28173215      -0.74348554      -1.78548549
H        1.82122080       0.22756524      -2.08721921
H        2.83218376      -0.67270640       0.68844941
H        1.35597023       0.28288389       0.40595068
H        1.56586491       2.57547984      -0.50095226
H        3.02350173       2.74796333      -1.55257544
H        2.68915251       4.08938801       1.08007631
H        5.21416603       3.21604792      -0.14458644
H        5.05987950       4.31626570       1.06321992
H        4.25890785       1.69013119       1.94129360
H        2.45986787       1.82678334       2.02438856
