13
Properties=species:S:1:pos:R:3 -1356.6387439556102=T 9.874808=T 10.73702=T -9.7707=T -7.6389=T -10.766=T 0.2427=T -1.7626=T -0.607=T 10.44432=T 1.18713=T 3.6247679058=T 11.7187971606=T 0.313294549=T pbc="F F F"
C        0.93436992      -0.01411552       0.10036282
N        2.33856608       0.16705627       0.47640930
C        2.90303004       1.43775239       0.01059512
C        2.55188958       2.47123776       1.11716445
O        1.74822130       3.36158551       0.95840711
C        4.35366159       1.35414363      -0.13472304
N        5.51567402       1.30333347      -0.22636444
H        0.59244046      -0.98451433       0.48084639
H        0.75887257       0.02511118      -0.99179291
H        0.31865275       0.76372622       0.57272252
H        2.91301734      -0.61485592       0.16138632
H        2.47248390       1.79778826      -0.94587126
H        3.04620046       2.25619106       2.09388763
