17
Properties=species:S:1:pos:R:3 -1708.4383753118589=T 10.846259=T 11.88534=T -9.5249=T -7.3558=T -10.03=T 0.8838=T -0.0063=T 2.299=T 9.65305=T -2.12283=T 7.1300257062=T 12.8630019616=T 0.140060458=T pbc="F F F"
C       -1.48129604       0.78388502      -0.03844089
C       -1.48436571      -0.78327060       0.06298639
C       -0.18075224      -1.46995548       0.62544957
C        0.82371209      -0.70590137      -0.20445289
O        2.09124966      -0.00845809      -0.01465573
C        0.83013971       0.69517033       0.19415610
C       -0.18294396       1.46417526      -0.62053856
H       -2.35645863       1.09053220      -0.63190225
H       -1.64026110       1.19775601       0.97152239
H       -1.66049989      -1.19627314      -0.94448855
H       -2.35201793      -1.08568870       0.66949740
H       -0.05956815      -1.29105915       1.70341858
H       -0.22148241      -2.55657279       0.45060233
H        0.67199696      -0.88083561      -1.27863947
H        0.69544369       0.87077978       1.27049984
H       -0.21568874       2.55097787      -0.44517009
H       -0.07890729       1.28469846      -1.70020418
