14
Properties=species:S:1:pos:R:3 -1453.5289184213937=T 11.031518=T 11.33063=T -8.4661=T -6.5311=T -9.231=T 0.9958=T -0.6347=T -0.387=T 8.67744=T 1.02766=T 4.313720912=T 4.7081451752=T 0.365217312=T pbc="F F F"
C        1.15545716       0.46809265      -0.56982445
O        2.55155572       0.31379786      -0.25012055
C        3.27824070       1.48400317      -0.30257893
O        2.77392480       2.56167545      -0.59919875
C        4.67488405       1.22922124       0.03330512
C        5.55613223       2.26178598       0.03082651
N        6.87876143       2.20485567       0.36572236
H        0.72589422      -0.53687669      -0.49660719
H        1.02992261       0.86895316      -1.58490373
H        0.66645244       1.14907220       0.14036858
H        4.97100092       0.20846276       0.27919001
H        5.18158917       3.25647627      -0.22570241
H        7.33096574       1.30134211       0.46334908
H        7.48307881       2.97705818       0.11425437
