13
Properties=species:S:1:pos:R:3 -1359.2983456337595=T 8.699727=T 9.27964=T -9.1869=T -7.1532=T -10.54=T 0.7771=T -0.1806=T 0.627=T 9.62181=T 0.03845=T 4.367220871=T 12.4948255346=T 0.166745049=T pbc="F F F"
O        1.18850918      -0.15437117       0.56278800
C        2.32854109      -0.04613722       0.12806185
C        3.17098795       1.23051173       0.01935989
C        4.37082429       0.83094048      -0.85094107
C        4.49003472      -0.69568980      -0.64448387
N        3.11391549      -1.07474604      -0.34670612
H        3.47022675       1.51328246       1.04152523
H        2.56798486       2.05255689      -0.38445144
H        4.15179350       1.03810889      -1.90852938
H        5.30026455       1.35275876      -0.59030068
H        4.86271605      -1.21161256      -1.54113850
H        5.16641436      -0.93733869       0.19593538
H        2.81717721      -2.03673372      -0.20695928
