12
Properties=species:S:1:pos:R:3 -1258.1687028327071=T 8.2662=T 9.09183=T -10.3219=T -8.1392=T -11.678=T 1.8285=T -0.2402=T -0.156=T 10.80753=T 0.68109=T 4.3781068418=T 11.9152033832=T 0.277672385=T pbc="F F F"
O        2.20392095       2.87902050      -0.62922577
C        2.43313684       2.21925021      -1.61863927
O        3.48977921       1.38884054      -1.81193509
C        4.42747785       1.30981952      -0.72750112
C        5.59779467       0.41382089      -0.97000933
C        5.78094599       1.92180893      -0.94004217
H        1.79863048       2.18244652      -2.52564350
H        3.95502282       1.36758181       0.25212153
H        5.65107215      -0.07017824      -1.94514447
H        5.96318258      -0.18402727      -0.13529325
H        6.26884463       2.38538512      -0.08270372
H        5.95168181       2.41597147      -1.89634383
