16
Properties=species:S:1:pos:R:3 -1574.1263475105943=T 10.491772=T 11.28267=T -8.5644=T -6.5459=T -9.117=T 0.9756=T 0.0552=T 1.321=T 8.52649=T -0.75715=T 6.212380523=T 0.347320177=T pbc="F F F"
C        2.26469045      -0.47707683       1.43911130
C        2.15600642       0.17313297       0.05190339
C        2.73920294       1.55980622      -0.00488562
C        2.02229555       2.67946259      -0.21797780
O        4.09650592       1.51382495       0.19927949
C        4.78944801       2.76145720       0.19642577
H        1.84264451      -1.49181036       1.42529556
H        1.71778761       0.11052434       2.19069024
H        3.31308165      -0.54780072       1.75842110
H        1.10411804       0.22880531      -0.26184093
H        2.68218262      -0.45367216      -0.68770867
H        0.94815640       2.59740611      -0.36979852
H        2.45872742       3.67516757      -0.24917648
H        5.84358337       2.52390618       0.37962911
H        4.41361122       3.42513194       0.99258258
H        4.68715788       3.26895468      -0.77709054
