18
Properties=species:S:1:pos:R:3 -1820.2709663057308=T 12.117557=T 12.69436=T -8.819=T -6.7127=T -8.959=T 0.8884=T -0.0304=T 1.392=T 8.46663=T -0.73951=T 6.096453613=T 0.319747806=T pbc="F F F"
C        0.95561624       0.03723955      -0.06683710
C        2.49082821       0.00947510      -0.01956024
N        2.98310412       0.08859187      -1.41364538
C        3.03875647      -1.28640329       0.65424125
C        3.43008314      -0.90349172       2.09987939
C        3.54245098       0.60053096       2.04071526
C        3.02238916       1.09325984       0.90852626
H        0.53035928      -0.12332607       0.93342928
H        0.58739585      -0.74734352      -0.74376416
H        0.58901550       1.00926431      -0.43376408
H        3.99726528       0.23430192      -1.40121199
H        2.58367266       0.91302155      -1.87324824
H        3.93272377      -1.60910387       0.09957888
H        2.31403291      -2.11058212       0.60257808
H        4.36113557      -1.38979847       2.43226051
H        2.65374746      -1.19948965       2.82835860
H        3.96561863       1.19482911       2.85316688
H        2.94300475       2.15312450       0.65378679
