19
Properties=species:S:1:pos:R:3 -1921.8135070069416=T 13.252153=T 14.00211=T -9.4945=T -7.3413=T -9.269=T 0.9846=T 0.0566=T 1.275=T 8.80201=T -0.67398=T 6.434377456=T 0.375219393=T pbc="F F F"
C        0.91008856      -0.01082810       0.07172740
C        2.46004349       0.04752303       0.06313366
C        2.99705322      -0.74247494       1.27361230
C        2.95058934      -0.63560558      -1.20496490
C        3.85509465      -0.17006566      -2.07312753
C        2.86731359       1.50532036       0.08510665
C        3.63371727       2.12232901       0.99108472
H        0.48928470       0.54374310      -0.77924166
H        0.51533085       0.42689173       0.99975987
H        0.56290271      -1.05299642       0.00509889
H        2.60610040      -0.32883641       2.21519893
H        4.09504870      -0.72219627       1.30648165
H        2.68227622      -1.79422334       1.20989098
H        2.50405630      -1.62237711      -1.38147642
H        4.33788243       0.80023601      -1.93853129
H        4.14696598      -0.75585958      -2.94608203
H        2.45587223       2.09590240      -0.74247584
H        4.07929298       1.59708803       1.83785938
H        3.84162640       3.19052974       0.91179524
