17
Properties=species:S:1:pos:R:3 -1638.2843325173794=T 10.521131=T 11.51405=T -8.5337=T -6.3938=T -10.078=T 0.9335=T 0.0286=T 3.044=T 9.46227=T -2.77135=T 8.1930816702=T 11.031220399=T 0.12530493=T pbc="F F F"
C        0.88851325       0.02719269       0.04436192
C        2.40860256      -0.00083321       0.03549570
C        3.19582603       1.01927425       0.89472746
N        4.09475347      -0.06198216       1.42761949
C        3.16188729      -1.09380061       0.84601220
C        3.80752088      -2.25082402       0.11114659
H        0.46552247      -0.84582205      -0.47607004
H        0.50060961       0.92750128      -0.45648175
H        0.50152278       0.02484460       1.07554018
H        2.78564592       0.00792162      -1.00226918
H        2.59093686       1.44851259       1.71214976
H        3.70324242       1.84180888       0.36918707
H        4.96380870      -0.06960080       0.88351050
H        2.52512276      -1.48391040       1.66260536
H        4.40753254      -1.89429506      -0.74180872
H        3.04652400      -2.94508945      -0.27604066
H        4.46821846      -2.82024816       0.78241412
