16
Properties=species:S:1:pos:R:3 -1562.2184943416428=T 10.009064=T 11.2001=T -9.3253=T -7.0041=T -10.571=T 1.0102=T 0.0272=T 3.131=T 9.94536=T -2.86153=T 8.5755164872=T 11.3862915058=T 0.092793575=T pbc="F F F"
N        2.29338735      -0.39384444      -1.43153341
C        2.43513181       0.10544611      -0.05878997
C        3.14267145       1.45326324      -0.04377372
O        2.26775500       2.50619014      -0.41305242
C        2.90199292       3.67100348       0.12088723
C        3.47416859       3.17664825       1.46069099
O        3.59012210       1.75230539       1.28753683
H        1.56982721      -1.11241950      -1.46860150
H        3.16004473      -0.84081862      -1.73846979
H        2.99619233      -0.55965649       0.62423371
H        1.43616160       0.25872080       0.37474958
H        4.02031260       1.44747095      -0.73073142
H        3.70652765       4.01884234      -0.55453924
H        2.14560757       4.45936671       0.22203917
H        4.46155892       3.61282857       1.68154421
H        2.79344816       3.37290308       2.30404975
