17
Properties=species:S:1:pos:R:3 -1678.8529045597872=T 10.565207=T 12.02042=T -9.716=T -7.5119=T -11.055=T 0.9355=T -0.05=T 2.796=T 10.73411=T -2.45464=T 8.6541980028=T 11.4517561138=T 0.175910512=T pbc="F F F"
O        1.35075311       2.90124490      -1.46660558
C        2.78082839       2.98937003      -1.35771824
C        3.26162397       1.75604753      -0.60257794
C        4.76117597       1.74459709      -0.38121654
O        5.25735597       2.83253811       0.38986521
C        5.49626593       0.42977120      -0.26389086
C        5.68715081       1.31840640      -1.48372651
H        1.03551357       3.70868233      -1.90535743
H        3.08453012       3.90013176      -0.81300765
H        3.25199466       3.02008203      -2.35819244
H        2.96271747       0.85371907      -1.15925487
H        2.74105509       1.71050820       0.37049830
H        4.95087216       2.69972151       1.30574657
H        4.93086304      -0.49672251      -0.37507393
H        6.32090395       0.39234691       0.44843466
H        6.63077062       1.85809753      -1.56122696
H        5.25069517       1.00088792      -2.43155579
