16
Properties=species:S:1:pos:R:3 -1598.32420252234=T 11.237477=T 12.05543=T -8.8153=T -6.6933=T -9.518=T 0.9958=T -0.2494=T 1.164=T 9.03991=T -0.58892=T 6.5370626612=T 0.432360494=T pbc="F F F"
O        0.83242580      -0.02116897       0.21070777
C        2.24117438       0.06691886       0.07301673
C        2.93105293       1.09877112       0.97435220
N        4.04096355       0.12664824       1.28016900
C        3.16717392      -0.98620241       0.77315533
C        3.76722133      -2.08169857      -0.03326708
C        5.06751788      -2.23198934      -0.31679016
H        0.47280858      -0.50591974      -0.55129650
H        2.54126939       0.19087720      -0.98303691
H        2.34102292       1.29620558       1.88301441
H        3.23880900       2.05285852       0.52557137
H        4.78681470       0.27664922       0.59127388
H        2.61220808      -1.41360153       1.62975683
H        3.04892354      -2.81799999      -0.41316866
H        5.82781313      -1.54925902       0.06920674
H        5.42147088      -3.06413919      -0.92611493
