12
Properties=species:S:1:pos:R:3 -1289.1923175305456=T 9.742342=T 10.21131=T -9.0754=T -7.0475=T -9.517=T 0.9822=T -0.8289=T 0.065=T 9.03145=T 0.44919=T 5.000603352=T 11.678737284=T 0.273928085=T pbc="F F F"
N        0.96122289       0.00630737       0.01453068
C        2.12795702      -0.00437147       0.01190388
C        3.59483541      -0.00159519      -0.00968642
C        4.23212513      -1.26437570       0.62676953
N        4.50770575      -0.79689214       2.00291859
N        4.68017237       0.57423540       1.99915109
C        4.17434822       1.06845925       0.92175278
H        3.91050340       0.13566336      -1.05446868
H        5.16299891      -1.51178021       0.08738277
H        3.56351243      -2.13292417       0.62588855
H        5.27075138      -1.25908656       2.49539258
H        4.10303709       2.14182006       0.76359465
