13
Properties=species:S:1:pos:R:3 -1326.2349033911703=T 10.086913=T 10.94639=T -9.2626=T -7.1572=T -9.774=T 1.0227=T 0.0431=T 2.432=T 9.53512=T -2.00574=T 4.4088057754=T 10.6755169636=T 0.544434675=T pbc="F F F"
C        4.73263732      -2.15093102      -0.72519986
C        4.20286222      -1.15708548      -0.27465889
C        3.54661972       0.03325544       0.25855091
N        4.42451784       1.21404000       0.21413586
C        4.40569942       1.94519655      -1.05877377
C        3.70810295       2.49382554       0.14123378
H        5.20599025      -3.02857768      -1.11541054
H        3.27270951      -0.14083670       1.31260971
H        2.59756630       0.19765974      -0.29817212
H        3.77693893       1.55132912      -1.86400245
H        5.36679230       2.35424713      -1.37573556
H        4.14945439       3.31072459       0.71563659
H        2.61293884       2.46878277       0.13200634
