19
Properties=species:S:1:pos:R:3 -1925.403043188378=T 13.621472=T 14.64758=T -9.1222=T -7.0375=T -9.148=T 1.5149=T 0.0037=T 1.276=T 8.99944=T -0.72035=T 6.3717397288=T 0.618098129=T pbc="F F F"
C        3.06425930      -2.48792488      -1.27753765
C        2.95253981      -1.69085612      -0.00352852
C        2.48793992      -2.23478826       1.13236567
C        3.38311306      -0.24310298      -0.06642425
C        4.89589050      -0.04802771      -0.33135248
C        5.29055620       1.39962018      -0.34204337
C        5.80020338       2.05096645      -1.39389744
H        2.52786011      -1.98771495      -2.10065702
H        2.65203046      -3.49828650      -1.15866815
H        4.11269727      -2.58613714      -1.60201249
H        2.17285800      -3.27955220       1.17708932
H        2.40475707      -1.65061488       2.05134691
H        3.11553353       0.25914957       0.87681198
H        2.82520938       0.26982604      -0.87005522
H        5.17897647      -0.51091979      -1.28981417
H        5.45417810      -0.57787347       0.46076425
H        5.12425248       1.95003869       0.59246265
H        5.97774047       1.54220271      -2.34558455
H        6.05892449       3.10963523      -1.34239544
