15
Properties=species:S:1:pos:R:3 -1570.711784202265=T 10.578607=T 11.5194=T -9.5722=T -7.3474=T -9.516=T 1.4892=T -0.268=T 0.066=T 10.37209=T 0.58723=T 4.4198033336=T 6.4333483722=T 0.323952981=T pbc="F F F"
C        0.47616260      -0.22695825       0.09870620
C        1.92219912      -0.53238738       0.31669231
C        2.46567397      -1.72535388       0.56527284
O        2.77688093       0.59873266       0.36709512
C        2.97258248       1.31343089      -0.79642515
C        3.85935622       2.50132291      -0.52387077
O        2.50174583       1.00508232      -1.87086871
H        0.12336456       0.50232634       0.84387584
H       -0.12237814      -1.14098887       0.19029629
H        0.31707123       0.20412364      -0.89918060
H        1.83796652      -2.61351664       0.61133200
H        3.53728919      -1.83274485       0.72619888
H        4.83335200       2.16145127      -0.14657847
H        3.41354640       3.13746571       0.25229342
H        3.99489709       3.07110412      -1.44742919
