15
Properties=species:S:1:pos:R:3 -1525.1461713491358=T 13.479018=T 12.65=T -7.8818=T -6.0683=T -8.404=T 0.0337=T -1.5115=T -0.405=T 7.86341=T 0.97814=T 4.120364745=T 5.705277783=T 0.36430733=T pbc="F F F"
N        1.26846176      -0.16750407       0.03497756
N        2.61043894       0.06908612       0.06012399
C        3.02428459       1.31299151       0.03026350
C        2.11190060       2.46213350       0.07150562
C        2.38343259       3.69886966      -0.38532614
C        4.47858314       1.54410594       0.00194574
C        5.40011483       0.66186279      -0.41922014
H        1.08130444      -1.14557637      -0.16894649
H        0.68830230       0.47115987      -0.51683627
H        1.14292205       2.28436855       0.55202711
H        3.32149068       3.93441046      -0.89195899
H        1.66457708       4.51139404      -0.27157817
H        4.80223574       2.52605792       0.35943639
H        5.10989930      -0.31739743      -0.80255640
H        6.46332195       0.89831751      -0.37268731
