11
Properties=species:S:1:pos:R:3 -1219.8605138822797=T 10.73367=T 9.95598=T -8.9658=T -7.0599=T -9.056=T -0.8509=T -2.517=T -1.593=T 8.37352=T 2.30872=T 3.2699819668=T 4.3386916924=T 0.445088204=T pbc="F F F"
O        0.93130864      -0.20607758       0.00645250
C        2.26218867      -0.03498596      -0.00137409
C        2.84692408       1.19559878      -0.00154952
C        2.33690992       2.53884498       0.00537954
C        3.47144686       3.29905731       0.00022657
N        4.62509696       2.48000607      -0.00936481
N        4.26628558       1.23593822      -0.01045310
H        0.72056187      -1.15760410       0.00491996
H        2.90103075      -0.92294721      -0.00788087
H        1.29884705       2.85450897       0.01282829
H        3.58168962       4.38110050       0.00245553
