15
Properties=species:S:1:pos:R:3 -1632.4868698369057=T 13.968267=T 14.02365=T -8.4641=T -6.5279=T -8.241=T 0.2103=T -1.2796=T 0.065=T 7.70563=T 0.57695=T 4.0445101102=T 5.0354558166=T 0.549078544=T pbc="F F F"
C        0.83446810       0.14676488      -0.10121615
C        2.30934156       0.18029721      -0.33774344
C        3.17929174       0.95188561       0.34039175
C        4.62947579       0.99411860       0.11755914
C        5.43573919       1.80453777       0.85084830
C        5.19096361       0.15733704      -0.89831290
C        5.64904484      -0.56158039      -1.76586432
H        0.50155948      -0.86910400       0.16728324
H        0.28250636       0.41933148      -1.01553092
H        0.53041913       0.83223235       0.70178015
H        2.70142569      -0.47521128      -1.12312991
H        2.81096648       1.61558236       1.13039336
H        5.01675437       2.44596946       1.62726876
H        6.51116726       1.83521080       0.68457619
H        6.06550642      -1.18925190      -2.52683323
