14
Properties=species:S:1:pos:R:3 -1471.5424408111826=T 10.820131=T 11.44285=T -9.2123=T -7.2647=T -10.46=T -0.1342=T -1.8383=T -0.609=T 9.39792=T 1.23883=T 3.502914465=T 11.845808419=T 0.383931654=T pbc="F F F"
C        0.98608071       0.06052094      -0.03927562
C        2.28157443       0.01225921       0.30229669
C        3.30718380       0.77784534      -0.46411196
O        3.04960120       1.41638566      -1.48288652
C        4.71234811       0.77494246       0.06879669
C        4.98690114       1.12920463       1.50281081
N        5.09261777      -0.26272832       1.05887572
H        0.22738758      -0.50115696       0.50681010
H        0.66767899       0.67125024      -0.88752530
H        2.63856449      -0.59701725       1.13550594
H        5.45019422       1.10865912      -0.66571467
H        4.14652450       1.33613486       2.17021689
H        5.89159602       1.70952213       1.69958680
H        6.07377706      -0.51884209       0.91373442
