17
Properties=species:S:1:pos:R:3 -1696.184621954348=T 10.243514=T 11.29763=T -9.2836=T -7.1357=T -11.306=T 0.8319=T -0.1869=T 2.828=T 10.7107=T -2.56724=T 9.2075475208=T 12.1799258918=T 0.099895153=T pbc="F F F"
O        1.01218926      -0.02610360       0.14831131
C        2.44971291       0.03026018       0.05032099
C        2.90513481      -1.31406899      -0.52399329
C        2.54591097      -1.43320659      -2.00525565
O        3.09057919      -0.34929323      -2.77015892
C        2.55615296       0.90031584      -2.32311989
C        2.91860946       1.17393795      -0.86283003
H        0.70436045       0.83123265       0.48925996
H        2.88321114       0.16216807       1.06001729
H        2.43874444      -2.13123906       0.04742985
H        3.99702700      -1.39745718      -0.40690644
H        2.96762603      -2.35020942      -2.44032162
H        1.44628928      -1.46159334      -2.12796864
H        2.98122535       1.66724802      -2.98608444
H        1.45532618       0.90260773      -2.44854716
H        4.01286574       1.27484885      -0.77284306
H        2.47679482       2.13067211      -0.53450025
