15
Properties=species:S:1:pos:R:3 -1556.4355011518821=T 10.375034=T 11.51824=T -7.8059=T -5.706=T -8.746=T 0.9511=T 0.0806=T 1.147=T 8.34118=T -0.60293=T 5.5296268168=T 11.467403147=T 0.298796351=T pbc="F F F"
C        0.88976065      -0.09801993       0.18946120
C        2.27963430       0.04261063      -0.37398621
O        2.70512209      -1.16681575      -1.03653094
C        3.47323187      -0.69838867      -2.10311584
C        3.26710362       0.61007198      -2.30803379
C        3.74559444       1.56436336      -3.33408118
O        2.34369102       1.08766112      -1.36836905
H        0.59094862       0.83877235       0.67712604
H        0.87302300      -0.90231624       0.93610859
H        0.17939050      -0.33278484      -0.61337659
H        3.03217010       0.27980292       0.41171884
H        4.06276593      -1.42617629      -2.64830617
H        4.28828442       2.40682292      -2.87883419
H        2.89754703       1.98402707      -3.89788173
H        4.41446241       1.05738937      -4.04023896
