13
Properties=species:S:1:pos:R:3 -1385.2520850470657=T 10.337101=T 10.69506=T -7.4927=T -5.5732=T -7.843=T 0.789=T -0.145=T 0.925=T 7.38098=T -0.32714=T 4.5944376146=T 6.0528849326=T 0.383112689=T pbc="F F F"
N        0.95007359      -0.22289575      -0.01926923
C        2.35420150      -0.01925543      -0.00970977
C        3.16940647       1.10604994       0.10322731
C        4.51690756       0.65012115       0.04256220
O        5.67361661       1.39643575       0.11166837
C        4.50812201      -0.72798689      -0.10415890
N        3.17849558      -1.11099148      -0.13331144
H        0.50020121       0.28300637      -0.78469145
H        0.51671537       0.08671738       0.85300073
H        2.82484374       2.13081830       0.21692758
H        5.42283421       2.32975480       0.21375091
H        5.32185596      -1.43776447      -0.18769219
H        2.82576620      -2.05627966      -0.23461410
