13
Properties=species:S:1:pos:R:3 -1314.381609551318=T 14.033233=T 14.60198=T -7.8849=T -6.107=T -8.774=T 0.5274=T -0.5487=T -0.159=T 7.88713=T 0.91013=T 3.1851507456=T 10.83327675=T 0.479673804=T pbc="F F F"
N        2.67846705      -1.61372411       0.67973881
C        2.27075401      -0.61846019      -0.18061416
S        0.99418725      -0.82402868      -1.25268692
N        2.99506765       0.53816428      -0.13277896
C        4.27972464       0.69056664       0.55965796
C        4.93872425       1.93241911       0.18291629
C        5.47860600       2.96946755      -0.13657276
H        3.13612235      -1.36726301       1.55526710
H        2.02312833      -2.38795580       0.73567456
H        2.75484075       1.21998902      -0.84718529
H        4.94038526      -0.16365886       0.32288522
H        4.12842530       0.69312221       1.65595982
H        5.96087716       3.88370183      -0.41792166
