15
Properties=species:S:1:pos:R:3 -1493.9447165746355=T 10.767705=T 11.24059=T -8.7704=T -6.836=T -9.658=T 0.6176=T -1.4112=T -0.266=T 8.80211=T 0.88374=T 3.6188289764=T 5.8186381828=T 0.158851775=T pbc="F F F"
C        0.92999700       0.42762200       0.22611250
N        2.36795471       0.64894228       0.15180256
C        3.20901801      -0.52519764       0.06678258
C        3.46412532      -1.16785389       1.42766865
O        3.60134166      -2.36179289       1.60163906
C        2.89354156       1.93029341       0.14781230
N        4.11096795       2.34200220       0.11379830
H        0.41975558       1.39673267       0.28185657
H        0.65155041      -0.15608579       1.11829816
H        0.56431745      -0.10752097      -0.66595741
H        4.18889671      -0.24454873      -0.35959488
H        2.77097848      -1.27701018      -0.60849467
H        3.50749194      -0.43712511       2.27687768
H        2.09916215       2.69035501       0.17277852
H        4.79599106       1.57402762       0.11573008
