16
Properties=species:S:1:pos:R:3 -1651.3041855645972=T 12.679368=T 12.91422=T -8.5472=T -6.6146=T -8.57=T 0.6387=T -0.9439=T 0.252=T 7.9917=T 0.28465=T 5.221112453=T 0.727586191=T pbc="F F F"
C        2.55685090      -1.26686190       0.65338344
C        2.17141445      -0.03804961       0.26114235
C        3.04878157       1.10880076       0.01737825
C        2.55425269       2.26809418      -0.46558752
C        4.50820896       0.95521527       0.31318728
C        5.50859818       0.66988568      -0.76249351
N        5.41682788       2.01638839      -0.16278647
H        1.82619242      -2.06140649       0.80555717
H        3.60451973      -1.52131305       0.82305610
H        1.10577540       0.15020331       0.09263248
H        1.49176109       2.37154071      -0.69170783
H        3.21506422       3.11490275      -0.65088006
H        4.72895952       0.50829312       1.28913771
H        5.15891538       0.61326845      -1.79604242
H        6.36311051       0.03298849      -0.51794974
H        6.17228709       2.14490995       0.51682279
