14
Properties=species:S:1:pos:R:3 -1474.5345549456156=T 12.652627=T 13.24281=T -9.1688=T -7.4102=T -9.126=T 0.5157=T -1.0107=T -0.258=T 8.39276=T 0.86999=T 4.6088819836=T 9.9944990614=T 0.391226762=T pbc="F F F"
C        0.85899012      -0.20264404       0.02932697
C        2.38653133      -0.02592083      -0.00713286
C        2.81103358       1.41433206      -0.03774556
C        3.02391342       2.28756777       1.01261450
C        3.36683334       3.58363576       0.54695179
N        3.43230550       3.76539272      -0.76879474
S        3.06206626       2.30266212      -1.50686548
H        0.59517974      -1.26925919       0.05296076
H        0.38998404       0.24816729      -0.85616307
H        0.42877460       0.27806843       0.91870327
H        2.79755703      -0.55379831      -0.88144681
H        2.83582690      -0.50087375       0.87903652
H        2.94351393       2.01019078       2.06318622
H        3.58497021       4.43797920       1.19136849
