11
Properties=species:S:1:pos:R:3 -1272.5596160129028=T 11.206043=T 11.20129=T -9.8864=T -7.895=T -9.654=T -0.8418=T -2.5493=T -1.206=T 9.23812=T 1.65297=T 3.8425493148=T 5.394754846=T 0.312234455=T pbc="F F F"
O        3.09307607      -1.25693843       0.37908416
C        2.39818840      -0.13260936       0.01017865
O        1.24807454      -0.22459910      -0.36844634
C        3.10474192       1.17119412       0.07697020
C        4.44461668       1.33562033      -0.02537625
C        5.09559021       2.58896518      -0.03511007
C        5.69622131       3.64752277      -0.04630205
H        3.94005239      -0.99626012       0.78832873
H        2.44320487       2.03699856       0.12257686
H        5.10061949       0.46457206      -0.14367399
H        6.21198413       4.58640399      -0.05453992
