12
Properties=species:S:1:pos:R:3 -1244.7239458692134=T 8.586168=T 8.98602=T -9.3032=T -7.2036=T -9.985=T 1.3761=T -0.3262=T 0.843=T 9.52527=T -0.25173=T 4.8770017086=T 12.1828767586=T 0.161975414=T pbc="F F F"
C        0.44781606       1.44871378       0.28696272
C        1.05011382       0.31571237      -0.45963516
C        0.97502161      -1.07989270       0.15549609
N       -0.46587849      -1.33863435       0.37016284
C       -1.09572191      -0.33765358      -0.12069176
N       -0.36198715       0.72667036      -0.74564137
H        0.70527834       2.47476076       0.01868568
H        0.17113464       1.28539670       1.33225407
H        1.76712152       0.52290600      -1.25583986
H        1.51450987      -1.18223423       1.11031078
H        1.37894079      -1.84206129      -0.52960732
H       -2.18614910      -0.25926384      -0.10977672
