17
Properties=species:S:1:pos:R:3 -1681.1368803423404=T 11.849674=T 12.55372=T -8.4023=T -6.4796=T -9.334=T 0.7624=T -0.2047=T 1.051=T 8.47934=T -0.47414=T 5.005562792=T 11.3869238344=T 0.250654113=T pbc="F F F"
C        0.99125657       0.06907241       0.25962490
C        2.48085602       0.11510723      -0.04462024
C        3.34141192       0.97152711       0.93503897
N        3.93979984      -0.27098749       1.44496076
C        3.30303969      -1.12531601       0.42328764
C        5.16814853      -0.41916797       2.03712893
N        5.91117014       0.47836069       2.58823124
H        0.48348123      -0.68757967      -0.35663880
H        0.51566181       1.04009208       0.05598820
H        0.81322502      -0.17968063       1.31701338
H        2.65366807       0.36919759      -1.09922147
H        2.77683431       1.54686077       1.68745414
H        4.07564391       1.63730854       0.44678596
H        4.00729857      -1.51724945      -0.32968141
H        2.70955064      -1.95728359       0.83644439
H        5.51114071      -1.46579575       2.04196905
H        5.47237302       1.40985412       2.51888437
