17
Properties=species:S:1:pos:R:3 -1674.4341355178674=T 10.419108=T 11.74635=T -9.935=T -7.6175=T -11.826=T 0.8389=T -0.0755=T 2.484=T 11.31663=T -2.17819=T 9.2098536604=T 11.1513876302=T 0.216115324=T pbc="F F F"
C        1.42962330      -0.09346035       0.41195554
C        2.72923055       0.05140662      -0.38957085
C        2.63495474      -0.66101105      -1.74939100
O        3.89419481      -0.78959316      -2.40381193
C        3.05369141       1.52019964      -0.58379417
C        4.15049585       2.19782759       0.12675997
O        4.30148316       1.83919251      -1.26396898
H        1.49413746       0.42545246       1.37906483
H        1.21171166      -1.15194878       0.61076541
H        0.57377457       0.32817859      -0.13798631
H        3.55883910      -0.41983340       0.16549131
H        1.90112270      -0.12947572      -2.39115817
H        2.25669873      -1.68510422      -1.60246708
H        4.35089231       0.06920914      -2.30974376
H        2.21532030       2.14104801      -0.92947938
H        4.76661368       1.61934912       0.82327893
H        4.09746571       3.27442299       0.31579565
