15
Properties=species:S:1:pos:R:3 -1580.7492233349433=T 11.631443=T 12.22771=T -7.547=T -5.6334=T -7.67=T 0.8379=T -0.0795=T 1.141=T 7.18274=T -0.52251=T 4.6158995912=T 6.1068436398=T 0.416830157=T pbc="F F F"
C        0.92973233       0.03309947       0.04406072
C        2.42838790       0.00581040       0.00024822
C        3.26777221       1.10613432      -0.06858092
N        4.57130986       0.64933341      -0.08512429
C        4.58795335      -0.72847919      -0.02320033
N        5.83860965      -1.39680219      -0.06617143
C        3.26798495      -1.15278943       0.03365508
H        0.55117838       1.06319417      -0.01323384
H        0.54056944      -0.41215863       0.97314135
H        0.48961417      -0.52938564      -0.79422862
H        3.03934316       2.16668587      -0.10300889
H        5.40783391       1.20838075      -0.21131684
H        5.76512189      -2.26832837      -0.59151819
H        6.18316428      -1.62806986       0.86940728
H        2.94228452      -2.18775509       0.10668070
