14
Properties=species:S:1:pos:R:3 -1421.7905146852115=T 9.615961=T 10.32829=T -8.6555=T -6.7272=T -10.474=T 1.1081=T -0.0663=T 0.287=T 9.86042=T 0.39027=T 4.2848693698=T 12.754005869=T 0.208781609=T pbc="F F F"
C        1.13660362       0.00538992       0.11494221
N        2.45975790      -0.08227860      -0.44911840
O        3.20181166       1.14882094      -0.36208726
C        4.47442337       0.78946237      -0.96007090
C        4.71598226      -0.64843502      -0.52089169
C        3.29101062      -1.17984578      -0.34797838
O        2.91929716      -2.33551301      -0.17764412
H        0.75326784      -1.02159231       0.15130936
H        0.48819973       0.62498741      -0.51748599
H        1.16959828       0.42300434       1.13418878
H        4.39146883       0.86250889      -2.05873522
H        5.20044892       1.52261280      -0.58909229
H        5.27254708      -1.25503039      -1.24428792
H        5.21954273      -0.71731156       0.45577182
