18
Properties=species:S:1:pos:R:3 -1814.3895786008309=T 12.370359=T 13.32655=T -8.6307=T -6.5189=T -9.097=T 1.0512=T -0.1214=T 1.457=T 8.49012=T -0.79793=T 6.3325601528=T 0.404695536=T pbc="F F F"
C        0.97898478      -0.02894552       0.00782009
C        2.49975630      -0.05191225       0.06515347
C        3.14660892       1.17866315       0.72427101
C        4.48747663       0.66360983       1.20768564
C        5.53914556       1.39389403       1.59232739
C        4.43046529      -0.85475599       1.15030091
N        3.00233626      -1.13562633       0.93096746
H        0.58299026      -0.95264347      -0.44009191
H        0.62334534       0.81419297      -0.60220707
H        0.56287754       0.06523497       1.02147920
H        2.90006367      -0.13422048      -0.97184986
H        2.53233391       1.48697017       1.58793197
H        3.23499408       2.03813029       0.04549357
H        6.46248168       0.92516568       1.93864194
H        5.51256155       2.48482121       1.57615816
H        5.07937227      -1.20714464       0.31932797
H        4.78952036      -1.32724165       2.07750118
H        2.85646560      -2.05402196       0.50737886
