17
Properties=species:S:1:pos:R:3 -1799.172662880977=T 11.710639=T 12.5351=T -8.6106=T -6.5102=T -8.684=T 0.9805=T 0.0546=T 1.404=T 8.21659=T -0.76752=T 5.811161827=T 10.8289868344=T 0.272755364=T pbc="F F F"
C        1.00186115      -0.02042362      -0.51331195
C        2.28195997      -0.02057615       0.28858403
C        3.52090829       0.75288829      -0.10489118
C        3.68260931       1.21288165      -1.55594594
C        3.74102914      -0.07508632      -2.34722327
C        3.69275236      -1.15494755      -1.54733078
C        3.54834770      -0.78063730      -0.11404558
H        0.43873602       0.91079339      -0.34554747
H        0.35535391      -0.85997976      -0.21613364
H        1.19120902      -0.11161835      -1.59154181
H        2.11864643      -0.03151951       1.37074541
H        4.04169255       1.30751583       0.67659205
H        4.60273832       1.80797972      -1.68797411
H        2.84980580       1.85935243      -1.88695103
H        3.78495890      -0.10009027      -3.43743477
H        3.72156434      -2.19034459      -1.89093582
H        4.06555678      -1.35844787       0.65469586
