17
Properties=species:S:1:pos:R:3 -1659.578681479735=T 13.393426=T 13.74119=T -8.1269=T -6.2279=T -8.858=T 1.2282=T -0.4045=T 0.568=T 8.28904=T -0.03549=T 4.8740880376=T 5.2611847282=T 0.271837655=T pbc="F F F"
C        6.56392155      -0.26133758       1.03777438
N        6.29073061       1.06631582       0.50331534
N        5.03017556       1.21829151      -0.00278725
C        4.51077941       2.39641694      -0.02761266
C        3.16421821       2.63415026      -0.65244056
C        2.15398504       3.13989351       0.34567428
C        1.54169005       4.32778464       0.28333456
H        7.63270184      -0.32776364       1.28046939
H        6.33402856      -1.00357787       0.26326634
H        5.97469354      -0.50455353       1.94085784
H        6.59284440       1.82978069       1.12289742
H        5.03225675       3.26748960       0.41198215
H        2.82751787       1.67923259      -1.08642829
H        3.25459897       3.36339261      -1.47657034
H        1.93679940       2.46505942       1.18139699
H        1.73792958       5.02669888      -0.53433442
H        0.81968866       4.63932616       1.03950485
