17
Properties=species:S:1:pos:R:3 -1747.7982479602204=T 11.994739=T 12.83932=T -9.5862=T -7.5321=T -10.117=T -0.0979=T -1.8684=T -0.866=T 9.77206=T 1.43113=T 3.41767409=T 5.317015624=T 0.446888704=T pbc="F F F"
C        0.87531120       0.07135754      -0.05964317
C        2.39589237      -0.08552176      -0.03997134
C        3.12359488       1.27115119       0.04295425
C        4.62098117       1.13030252       0.03785786
C        5.40079883       1.15499206       1.13668415
C        5.30760204       0.93720119      -1.26349066
O        4.74898766       0.92026603      -2.35081340
H        0.37601838      -0.90712092      -0.10050404
H        0.54736590       0.65077563      -0.93576593
H        0.51440631       0.59338382       0.84007707
H        2.72826464      -0.61484345      -0.94645653
H        2.69988907      -0.70630870       0.81898669
H        2.80633319       1.80444580       0.95298677
H        2.82662101       1.88227995      -0.82477998
H        4.99243843       1.30731025       2.13738217
H        6.48279838       1.02375842       1.05387906
H        6.41883657       0.81279043      -1.18411297
