16
Properties=species:S:1:pos:R:3 -1667.704572883411=T 11.345139=T 11.91911=T -8.2026=T -6.1036=T -8.659=T 1.0033=T -0.0961=T 1.417=T 8.23673=T -0.78417=T 5.8656412754=T 0.258319683=T pbc="F F F"
C        0.86681824      -1.23403707       0.87368230
C        1.15917307      -0.34543390      -0.32013909
N        0.99229341       1.09182902      -0.35877948
C       -0.17763757       1.63685621       0.35174365
C       -1.41775083       0.82200559       0.11858037
C       -1.36800438      -0.48119611      -0.19931213
C       -0.07983728      -1.20055633      -0.33670917
H        1.48023631      -2.12451986       1.02216914
H        0.48601072      -0.77650944       1.78798482
H        1.97308422      -0.67115769      -0.97239066
H        1.83765337       1.53893233       0.00136145
H       -0.01261392       1.72119757       1.44965638
H       -0.33812420       2.66719660      -0.00773694
H       -2.37735794       1.32750699       0.24446711
H       -2.29097447      -1.04626308      -0.35266160
H       -0.08060875      -2.08090084      -0.98199617
