15
Properties=species:S:1:pos:R:3 -1570.7803212173835=T 9.922616=T 11.15568=T -9.9198=T -7.8071=T -11.254=T 0.8974=T -0.2283=T 0.119=T 10.29109=T 0.50146=T 4.2998220814=T 11.8236273236=T 0.245883013=T pbc="F F F"
O        2.34258534       1.67156418      -0.43700766
C        2.58646148       0.99655678      -1.60093145
O        1.69806120       0.79626141      -2.39847034
C        4.02114617       0.49791777      -1.78617948
C        5.09105982       1.26489350      -1.03921214
C        5.35981562       0.98628899       0.43723249
C        6.36194610       0.57670945      -0.61525354
H        3.19085055       1.73121132       0.05287533
H        4.21603165       0.49022705      -2.86801487
H        4.02410704      -0.55877454      -1.46819815
H        5.20353764       2.30814153      -1.34770211
H        4.79248019       0.18860824       0.92131853
H        5.61434543       1.82390254       1.08765771
H        7.29506143       1.13556855      -0.68061982
H        6.45278035      -0.48783677      -0.83479451
