16
Properties=species:S:1:pos:R:3 -1614.5590799220445=T 10.583572=T 11.47563=T -9.0078=T -6.8693=T -10.382=T 0.8502=T -1.0383=T 0.013=T 9.97527=T 0.64443=T 3.7206834754=T 10.6731240338=T 0.107057399=T pbc="F F F"
C        0.92984239       0.05827995       0.12733253
C        2.45331739       0.01703481       0.01056194
C        3.27143309       1.06756396       0.83444055
C        4.15668643      -0.12422161       1.26607297
N        3.11925048      -1.07557316       0.76323171
C        2.85296556       0.08393128      -1.45319237
O        3.55969338      -0.73486703      -2.01356584
H        0.64886024       0.06994573       1.18834130
H        0.47953672      -0.83165249      -0.33662271
H        0.51278602       0.95252464      -0.36052582
H        2.67226745       1.49620864       1.64846824
H        3.75555102       1.87792660       0.27347494
H        5.10879599      -0.16248196       0.71157779
H        4.36271225      -0.22270017       2.34220600
H        3.50005888      -1.78361307       0.12494698
H        2.44167271       0.96675386      -2.01138821
