15
Properties=species:S:1:pos:R:3 -1612.3986933085355=T 12.328194=T 12.26083=T -7.7245=T -5.7521=T -7.939=T 0.8404=T -0.711=T 0.382=T 7.49921=T 0.18007=T 4.6567157824=T 0.542747941=T pbc="F F F"
C        0.99779420      -0.11415763      -0.20124662
C        2.37309924       0.12631236       0.33881699
C        3.02908677       1.30614946       0.30137940
O        4.31213226       1.43146883       0.82815905
C        4.76166047       2.79063125       0.64887890
C        3.62683182       3.48523286      -0.03535810
C        2.62967676       2.60231189      -0.22837791
H        1.00281974      -0.90219681      -0.97268951
H        0.55965425       0.78545883      -0.65426249
H        0.30848454      -0.45570345       0.58891327
H        2.89287403      -0.71675806       0.80026325
H        5.69128581       2.78444342       0.04953901
H        5.00197694       3.22213743       1.63844658
H        3.64043043       4.53645557      -0.31644018
H        1.67042275       2.80073405      -0.69989162
