14
Properties=species:S:1:pos:R:3 -1514.6139979199427=T 10.531982=T 10.93492=T -8.9368=T -7.0405=T -9.987=T 0.6105=T -1.0411=T -0.269=T 9.09287=T 0.76494=T 4.2041916796=T 5.7023765106=T 0.387412309=T pbc="F F F"
C        1.12176252       0.00926271       0.17222493
N        2.54309072      -0.00266060      -0.08531658
C        3.34254186      -1.20311418      -0.19661094
C        4.72281007      -0.67082062      -0.46322697
C        4.69565151       0.67001411      -0.49617018
C        3.30257729       1.14975382      -0.25600778
O        2.88298382       2.30471732      -0.21221628
H        0.80844323       1.06081216       0.20136963
H        0.88278981      -0.46327992       1.13868869
H        0.56297026      -0.50948698      -0.62353761
H        2.99048496      -1.85589495      -1.01819319
H        3.30936538      -1.80554583       0.73135876
H        5.58384642      -1.32227664      -0.60183257
H        5.52032215       1.35775960      -0.66587992
