14
Properties=species:S:1:pos:R:3 -1490.7767915457707=T 12.469221=T 11.86792=T -7.9984=T -6.1676=T -8.428=T 0.2468=T -1.3092=T -0.583=T 7.89535=T 1.40244=T 3.5579146546=T 4.0562143886=T 0.322312711=T pbc="F F F"
N        1.28783468      -0.67285467       0.64423326
C        2.56934272      -0.36684494       0.33102456
C        3.05223333       0.86759601      -0.03500866
C        2.21758761       2.06710469      -0.05321729
C        2.39861684       3.16079947      -0.81892469
C        4.48797300       0.93980192      -0.34130626
O        5.26330014      -0.01523389      -0.38917587
H        1.02371636      -1.62845839       0.84627340
H        0.53869850      -0.00612537       0.49327955
H        3.28449440      -1.19227572       0.38151156
H        1.38057508       2.08630540       0.65783397
H        3.19042483       3.22397772      -1.56720206
H        1.74815502       4.02931214      -0.71508003
H        4.86530749       1.97753563      -0.51602143
