15
Properties=species:S:1:pos:R:3 -1478.254552905088=T 10.550468=T 11.08778=T -8.9227=T -6.7858=T -10.224=T 1.2365=T -0.1554=T 0.715=T 9.69181=T -0.00402=T 5.549117416=T 6.4452510282=T 0.171675993=T pbc="F F F"
O        1.22278761       0.00577524       0.78613179
N        2.39380505      -0.04740238      -0.03025161
C        2.90185880       1.12016914      -0.16314247
C        2.45061462       2.43419808       0.42569347
C        3.38159660       3.44702917      -0.25895299
N        4.60370233       2.65703644      -0.48931863
C        4.14440405       1.35323675      -0.99517395
H        0.96081034      -0.93153108       0.80457177
H        2.60478567       2.41180350       1.51650288
H        1.38153709       2.61661756       0.25035161
H        2.90840769       3.80309384      -1.19899965
H        3.60122270       4.32371387       0.36651627
H        5.23583752       3.11582672      -1.14678240
H        3.85877846       1.36735761      -2.07041231
H        4.90076147       0.56906555      -0.85273378
