17
Properties=species:S:1:pos:R:3 -1641.4789845337891=T 11.09053=T 11.83492=T -9.1761=T -7.0087=T -9.548=T 1.0242=T -0.1918=T 1.36=T 9.03024=T -0.78165=T 6.6881520008=T 0.39703007=T pbc="F F F"
C        1.58060378      -0.53662444       0.87121837
C        3.04361000      -0.09021820       0.87909705
C        3.27674982       1.27703862       0.21112944
N        2.55370594       2.41678756       0.81316522
C        4.73031210       1.67704263       0.10686303
C        5.79593551       0.97142652       0.50269372
H        1.46922797      -1.53067740       1.32653335
H        1.18641488      -0.59636333      -0.15538612
H        0.93693988       0.15236320       1.43903148
H        3.65075784      -0.84673693       0.35461447
H        3.41813210      -0.05091048       1.91682450
H        2.89758234       1.20542135      -0.82838516
H        2.84041524       2.51954663       1.79154244
H        1.54834683       2.23101191       0.82027044
H        4.87506728       2.67057762      -0.33023038
H        5.71117676      -0.01817230       0.95572439
H        6.80499174       1.36728705       0.37900377
