13
Properties=species:S:1:pos:R:3 -1376.2804012872657=T 10.288067=T 10.50142=T -7.7926=T -5.8055=T -8.039=T 0.806=T -0.2091=T 0.581=T 7.46682=T -0.11431=T 4.420906809=T 5.9689464106=T 0.424813193=T pbc="F F F"
N        0.90517375      -0.05068715      -0.14109763
C        2.30910258       0.01305684      -0.02913024
C        3.16136410       1.08664039      -0.04275357
O        4.46939278       0.66236024       0.00751943
C        4.43737840      -0.71258940       0.05162053
C        3.14262307      -1.16220802       0.02831818
N        2.61793073      -2.46670481       0.13163343
H        0.46576105       0.86555372      -0.06330174
H        0.50519082      -0.66927814       0.56821992
H        3.00803287       2.15861287      -0.09218119
H        5.39815516      -1.21173891       0.10501079
H        1.90653402      -2.63701724      -0.58293510
H        3.33803067      -3.18386038       0.05559719
