15
Properties=species:S:1:pos:R:3 -1544.6354174728533=T 9.621192=T 10.61106=T -9.7504=T -7.5854=T -11.539=T 0.8989=T -0.0234=T 2.668=T 11.53554=T -2.47778=T 9.0319337504=T 10.7113489176=T 0.163303813=T pbc="F F F"
C       -1.48944746       0.78787675       0.22474220
C       -1.35546680      -0.69214586      -0.14286988
C        0.03848698      -1.20834054       0.16596751
O        1.05340876      -0.95452058      -0.83592511
C        1.12643537      -0.23721948       0.40655913
C        0.81881774       1.24366849       0.36818278
O       -0.40390372       1.56285582      -0.28868512
H       -2.40205395       1.22448898      -0.20401671
H       -1.53898757       0.90101342       1.32756048
H       -1.55555885      -0.83791771      -1.21542373
H       -2.10231978      -1.27822669       0.41568111
H        0.11452501      -2.20382390       0.61870745
H        1.96671752      -0.51729378       1.05595060
H        0.80234661       1.61223150       1.41661890
H        1.60749013       1.78608358      -0.17458960
