15
Properties=species:S:1:pos:R:3 -1577.8536638661021=T 11.262265=T 12.23067=T -8.589=T -6.682=T -8.807=T 0.7723=T -0.105=T 0.628=T 8.07865=T -0.04335=T 5.0290829362=T 11.5516144382=T 0.362468178=T pbc="F F F"
C        0.92322304      -0.05359682      -0.01015516
C        2.41186127       0.07106448       0.00020137
C        3.25553450       1.17559702       0.00784400
C        4.57576388       0.65613309       0.01455985
C        5.87057295       1.41065908       0.02543674
N        4.56587359      -0.68672255       0.01152826
N        3.24671607      -1.00909316       0.00281797
H        0.46390836       0.94210591      -0.00209862
H        0.55161280      -0.59902490       0.87091349
H        0.56226693      -0.57977222      -0.90725913
H        2.95311422       2.21870678       0.00827353
H        5.68994681       2.49283475       0.01152471
H        6.48565948       1.15403828      -0.84895487
H        6.46015327       1.17317543       0.92266940
H        2.98461284      -1.98944518      -0.00132154
