21
Properties=species:S:1:pos:R:3 -1959.9198832253412=T 12.426735=T 13.53331=T -8.8113=T -6.6621=T -10.204=T 0.8814=T -0.0755=T 2.928=T 9.71902=T -2.5911=T 8.2169117794=T 10.5274404838=T 0.103566351=T pbc="F F F"
C        0.98854894      -0.10777324       0.19597992
C        2.45858032      -0.10233396      -0.22795528
C        3.20438816       1.25158095      -0.07947385
C        2.64236613       2.30521277      -1.04006603
N        3.15466563       1.80681325       1.29285296
C        4.70235815       1.03586156      -0.40915870
N        5.37716325       0.24241835       0.63236913
H        0.55878029      -1.11355509       0.08311415
H        0.37495068       0.57711133      -0.40838266
H        0.86826025       0.17647006       1.25285768
H        2.53305361      -0.42602906      -1.28143041
H        3.01827210      -0.84501862       0.36430240
H        2.74167343       1.97631149      -2.08521754
H        3.18062213       3.25609014      -0.91875999
H        1.57549417       2.49545490      -0.85036790
H        3.37414174       1.05405515       1.95329318
H        2.19971808       2.10292004       1.51000742
H        5.16325066       2.03055121      -0.55940185
H        4.77577065       0.48916717      -1.36286621
H        5.67657436       0.86562970       1.38588763
H        6.22707728      -0.18063811       0.25739595
