15
Properties=species:S:1:pos:R:3 -1566.7434694950289=T 13.192541=T 14.38615=T -8.9222=T -6.797=T -8.519=T 0.6806=T -0.9318=T 0.604=T 8.08889=T -0.0615=T 3.9579182878=T 5.9844818564=T 0.517346102=T pbc="F F F"
C        0.96076170      -0.07477679       0.02416713
O        2.38251654      -0.05063692       0.02317565
C        2.86840989       1.29311803       0.00077671
C        4.32077826       1.31208001       0.00095453
C        5.53823875       1.38211490       0.00047172
C        6.95468663       1.39461327       0.00009174
C        7.72043845       2.50332215      -0.00095110
H        0.66173213      -1.12972551       0.04189967
H        0.54400484       0.40462477      -0.88215289
H        0.54479993       0.43461354       0.91434552
H        2.48819337       1.85174744       0.88253094
H        2.48883740       1.82179948      -0.89955860
H        7.43568011       0.41044843       0.00123581
H        7.27969746       3.50074705      -0.00212081
H        8.80722454       2.42628015      -0.00167600
