12
Properties=species:S:1:pos:R:3 -1354.534277553541=T 10.374377=T 10.84968=T -10.7451=T -8.6688=T -10.581=T -1.2533=T -3.0453=T -1.79=T 10.14665=T 2.38639=T 3.2048645196=T 4.883932526=T 0.342489184=T pbc="F F F"
C        0.94999379      -0.00592297       0.06475736
C        2.44597076      -0.05519983      -0.02626088
C        3.18841187      -1.17122791       0.11817431
C        3.11767773       1.23951118      -0.29565830
O        2.52704881       2.30226253      -0.44151511
C        4.59566201       1.22721539      -0.39189166
N        5.75881713       1.28164697      -0.47876004
H        0.63358884       0.68324486       0.86074468
H        0.53595176      -1.00081411       0.26468138
H        0.51859932       0.38358658      -0.86844277
H        2.72345385      -2.13782370       0.31679275
H        4.27669413      -1.14624899       0.04126827
