14
Properties=species:S:1:pos:R:3 -1454.5145752084238=T 9.972583=T 10.49769=T -9.312=T -7.3472=T -10.084=T 0.0207=T -1.704=T -0.67=T 9.47253=T 1.23422=T 3.4404627168=T 5.3819594908=T 0.394878328=T pbc="F F F"
C        0.94638250      -0.08039812       0.07160193
C        2.44706128      -0.08679088      -0.00168639
C        3.18694227      -1.18836503       0.22825101
C        3.08973955       1.22507554      -0.35217604
C        4.60281205       1.32108747      -0.45050493
O        2.38530005       2.21149689      -0.55587536
H        0.59824076       0.64961404       0.81634298
H        0.55904267      -1.07312760       0.33145746
H        0.51326466       0.23663610      -0.88791601
H        2.71711718      -2.14066033       0.48246330
H        4.27541681      -1.17996885       0.17186065
H        4.99414833       0.63755500      -1.21763795
H        5.07961276       1.05408474       0.50357005
H        4.86840914       2.35040104      -0.71275069
