19
Properties=species:S:1:pos:R:3 -1887.022120448274=T 11.862021=T 13.34029=T -9.4807=T -7.3177=T -10.833=T 1.0798=T -0.8192=T 0.091=T 9.94154=T 0.55539=T 3.7295856702=T 11.0167884286=T 0.171869133=T pbc="F F F"
C        1.04614364      -0.07142240       0.18373655
C        2.57122195      -0.17664217       0.14244773
C        3.25392932       1.18761156      -0.00095933
C        4.79290845       1.12411006      -0.04534432
C        5.40379821       2.50052936      -0.36299857
C        5.32752420       0.66236156       1.29444656
O        6.04423789      -0.30250988       1.48350173
H        0.57775229      -1.06068248       0.28124419
H        0.65368056       0.39523623      -0.73293107
H        0.71283136       0.54096969       1.03546570
H        2.87823682      -0.82273783      -0.69757304
H        2.93174377      -0.68041925       1.05508851
H        2.94329296       1.84811364       0.83025204
H        2.90267448       1.68037961      -0.92401036
H        5.11732548       0.38832270      -0.79891775
H        5.15611481       3.23592281       0.41832260
H        5.00674951       2.87915300      -1.31547839
H        6.49797916       2.44499911      -0.44533282
H        5.01110515       1.31495467       2.15669004
