13
Properties=species:S:1:pos:R:3 -1269.602997182217=T 9.709835=T 11.17255=T -10.6161=T -8.6951=T -10.899=T 0.6935=T -0.3836=T -0.238=T 10.53563=T 0.71793=T 5.4090008374=T 11.0335389372=T 0.137855661=T pbc="F F F"
C        0.86324595       0.05067297       0.02782565
C        2.37530314       0.05374711      -0.01388190
C        3.15348983       1.01375289       0.90408214
O        4.06548495       0.04450659       1.52368742
S        3.23794372      -1.29248297       0.90585152
O        2.39911596      -1.89104194       1.94218944
O        4.14564280      -2.11052686       0.10994525
H        0.45286478      -0.76442444      -0.58213214
H        0.47933608       0.99794468      -0.37773178
H        0.49797494      -0.06533986       1.05655007
H        2.77977274       0.03755432      -1.03488316
H        2.51845086       1.47659989       1.67355576
H        3.74577426       1.77129761       0.37576174
