21
Properties=species:S:1:pos:R:3 -2069.723405964636=T 12.744257=T 14.0916=T -10.1378=T -7.9507=T -11.403=T 0.9134=T 0.0268=T 2.865=T 11.08069=T -2.5479=T 9.4972160126=T 9.6482557578=T 0.102508139=T pbc="F F F"
C        0.92118241      -0.00444280      -0.02015793
C        2.43905544      -0.02067484       0.07629658
C        3.16225936       1.03458873       0.95428098
C        4.20504707      -0.04834765       1.33343132
C        3.19804315      -1.15142173       0.87153860
C        2.39891168      -1.70731457       2.05366241
C        3.77055365      -2.28827452       0.03026460
H        0.53827973      -0.87503128      -0.57549381
H        0.57734870       0.89833658      -0.54891132
H        0.44862009      -0.00398900       0.97384867
H        2.86811249       0.01051685      -0.94061758
H        2.54596383       1.33131142       1.81715920
H        3.52597594       1.94592844       0.45922557
H        5.08778894      -0.01147291       0.67706871
H        4.54444483      -0.09029486       2.37921248
H        1.98846350      -0.90929468       2.69023199
H        3.04752875      -2.33421368       2.68596010
H        1.55850054      -2.33269299       1.71359418
H        4.35832388      -1.89966129      -0.81547996
H        2.96883923      -2.92460592      -0.37879370
H        4.43065682      -2.93448929       0.63147890
