16
Properties=species:S:1:pos:R:3 -1583.511977932435=T 10.577252=T 11.69047=T -9.3308=T -7.1678=T -10.739=T 0.9277=T 0.0124=T 3.148=T 10.04565=T -3.12267=T 8.7500515794=T 12.2017846236=T 0.172707324=T pbc="F F F"
C        0.59170941       0.39181816      -0.82055822
C        0.06231020       1.32462567       0.21413690
N        0.15687642      -0.11807014       0.48981768
C        1.23158117      -0.50417656       1.38881076
C        0.83673567      -0.70085485       2.86642572
O        1.41042131      -2.04135316       2.88019330
C        1.56854196      -2.00846451       1.43094977
H       -0.03088899       0.09621643      -1.66719057
H        1.66752972       0.43114332      -1.02181226
H       -0.95232127       1.71940320       0.13364602
H        0.78477562       1.98656274       0.70334556
H        2.13381861       0.12981580       1.27136768
H       -0.25667125      -0.72017717       3.01459797
H        1.31208324      -0.04560866       3.61239967
H        2.58080110      -2.31293562       1.12370323
H        0.81064708      -2.62748465       0.92076679
