14
Properties=species:S:1:pos:R:3 -1483.7787568938927=T 13.787342=T 14.75767=T -9.0114=T -6.8951=T -8.705=T 0.7699=T -0.8724=T 0.994=T 8.325=T -0.58632=T 3.2297981042=T 7.7694711026=T 1.013007088=T pbc="F F F"
C        0.99558273      -0.00566298      -0.04516567
N        2.44934453      -0.00290493       0.10463785
C        3.00049943       1.35579578       0.02359738
C        4.45425115       1.36474642       0.02998929
C        5.67677853       1.37662412       0.00585753
C        7.03591362       1.39103595      -0.01551209
C        8.25648131       1.40671548      -0.03690878
H        0.63543322      -1.04279053      -0.05446895
H        0.62935184       0.50207889      -0.96258084
H        0.53781789       0.49722122       0.82086014
H        2.87677481      -0.57278797      -0.62915791
H        2.63250780       1.92573739       0.89666180
H        2.65031765       1.91601880      -0.87468821
H        9.32645549       1.42077237      -0.05305153
