13
Properties=species:S:1:pos:R:3 -1256.0670156991212=T 10.433829=T 11.65945=T -10.5192=T -8.5704=T -10.975=T 0.322=T -1.4768=T -0.274=T 10.21771=T 0.89056=T 5.4630339362=T 6.9290072044=T 0.355997724=T pbc="F F F"
C        1.20045127      -0.32064166       0.19584468
O        2.62678715      -0.07142089       0.07245764
S        2.99824402       1.50145614      -0.27827840
O        2.69478828       1.76868568      -1.68427380
O        2.44703202       2.35792818       0.77510531
C        4.74746854       1.33963525      -0.03512398
C        5.58224367       1.54062570      -1.05288943
H        1.12315092      -1.37501493       0.47944736
H        0.69613841      -0.15061610      -0.76519880
H        0.76594569       0.31612822       0.97800763
H        5.03439301       1.14099286       0.99767564
H        5.19974392       1.74879100      -2.05312744
H        6.66178309       1.50590057      -0.90305643
