16
Properties=species:S:1:pos:R:3 -1670.4620707023855=T 11.30596=T 11.84713=T -8.6088=T -6.4772=T -8.923=T 0.9389=T -0.0256=T 1.453=T 8.42318=T -0.80769=T 6.1121254434=T 0.307180679=T pbc="F F F"
C        0.90928223      -1.52008407       0.57125809
N        1.43390176      -0.17064288       0.92729504
C        0.73929638       0.45340481      -0.23871440
C       -0.22611421       1.58916870       0.14997405
C       -1.50294369       0.84937213       0.47628069
C       -1.43841551      -0.45863770       0.18035690
C       -0.10750045      -0.85112046      -0.39754338
H        1.62580957      -2.16490393       0.03200677
H        0.49466130      -2.07898864       1.42594994
H        2.45244398      -0.09543166       0.90087107
H        1.39779049       0.70392549      -1.08647297
H        0.16721044       2.14707146       1.01600734
H       -0.37649810       2.31681503      -0.66732207
H       -2.37554593       1.34301522       0.90858584
H       -2.25065834      -1.17224291       0.33153938
H       -0.18326993      -1.31573059      -1.39179230
