15
Properties=species:S:1:pos:R:3 -1605.652121367836=T 11.150586=T 11.82319=T -8.337=T -6.2853=T -8.852=T 0.9092=T 0.0189=T 1.38=T 8.28134=T -0.79202=T 6.1019337942=T 0.440863046=T pbc="F F F"
C        1.08452755       0.04305880       0.25663852
C        2.29046375      -0.06478979      -0.31985734
O        2.62643224      -1.14807990      -1.11556588
C        4.07006992      -1.24505718      -1.21730589
C        4.61428557       0.12193780      -0.85967090
C        4.02206256       1.28948306      -1.59536926
C        3.43935011       0.87284170      -0.25305069
H        0.82734726       0.94534703       0.80677199
H        0.34435333      -0.74959066       0.16589941
H        4.43278466      -2.00936234      -0.50811111
H        4.29778240      -1.56925966      -2.24395107
H        5.61204215       0.19388999      -0.42740799
H        4.59519126       2.21628023      -1.60989439
H        3.42330653       1.09519626      -2.48753390
H        3.54411072       1.52819468       0.61014850
