13
Properties=species:S:1:pos:R:3 -1450.9865132961531=T 12.401132=T 12.28303=T -9.4164=T -7.4141=T -9.168=T -0.826=T -2.4582=T -1.202=T 8.74786=T 1.73976=T 3.2773095394=T 4.073436044=T 0.393324306=T pbc="F F F"
C        0.84140081       0.12064908      -0.00450630
C        2.33378363       0.00732349      -0.00503021
C        2.91836056      -1.35045237      -0.01091441
O        2.24416761      -2.37366484      -0.01552552
C        3.15738396       1.09495128      -0.00021528
C        4.57069254       1.08410720      -0.00017253
C        5.78536370       1.18158042       0.00019623
H        0.51441079       1.16745267       0.00015348
H        0.41838672      -0.39370441       0.87109322
H        0.41834905      -0.38590834      -0.88462001
H        4.03326106      -1.38954489      -0.01121763
H        2.70248602       2.09203030       0.00418630
H        6.85475355       1.24193042       0.00044266
