12
Properties=species:S:1:pos:R:3 -1279.4319857698993=T 11.609231=T 11.9929=T -9.0911=T -7.1967=T -8.625=T 0.5271=T -1.0638=T -0.108=T 8.15627=T 0.78436=T 4.253401723=T 6.4679404662=T 0.202453845=T pbc="F F F"
O        2.59410449      -0.69025877      -1.36454570
C        2.30842149      -0.08469741      -0.09357032
C        2.88250850       1.29234149      -0.05853934
C        2.23757446       2.48183158       0.18916463
N        3.01260497       3.61605056       0.20391356
C        4.26216755       3.30958262      -0.03795931
S        4.57972461       1.61231394      -0.29895246
H        2.31464732      -1.62068333      -1.31628095
H        2.73164234      -0.69288922       0.72712995
H        1.21967369      -0.00056083       0.07876782
H        1.16584382       2.56598962       0.37096799
H        5.07168676       4.03530975      -0.10060586
