19
Properties=species:S:1:pos:R:3 -1875.9693872236182=T 11.5997=T 13.00281=T -9.6343=T -7.4563=T -11.371=T 0.9068=T -0.0495=T 2.772=T 11.05603=T -2.5315=T 9.25245525=T 10.8427492804=T 0.10790955=T pbc="F F F"
C        0.91718307      -0.01867881       0.05386991
C        2.43705943       0.00514537       0.03718863
C        3.18661829       1.07555190       0.88253866
C        4.24669086       0.00667858       1.26272984
O        5.46061791       0.06867417       0.51235256
C        3.22174746      -1.09278321       0.82013485
C        3.71134683      -2.33859883       0.10236659
H        0.52164811      -0.90308899      -0.46886996
H        0.49411578       0.87198352      -0.43564313
H        0.53978676      -0.04283370       1.08870068
H        2.79134577       0.03359040      -1.00946096
H        2.59361971       1.38750195       1.75647422
H        3.56514826       1.97552386       0.37593882
H        4.57049433      -0.02630465       2.31235336
H        5.23334965       0.20813953      -0.42434171
H        2.62985485      -1.37776796       1.70811002
H        4.35934131      -2.08520081      -0.75015636
H        2.86532354      -2.92858073      -0.28141408
H        4.29490805      -2.98522159       0.77426807
