9
Properties=species:S:1:pos:R:3 -926.822344393413=T 6.293186=T 6.81112=T -11.829=T -9.2515=T -11.859=T 0.7911=T -0.319=T 1.469=T 11.43574=T -1.11464=T 5.3845755954=T 13.9727634518=T 0.517920776=T pbc="F F F"
C        0.97386084      -0.06067746       0.00351064
C        2.51027596      -0.00411384      -0.00015209
C        3.02519163       1.36307648       0.00016301
N        3.42098765       2.46041726       0.00035735
H        0.64010066      -1.10622254       0.00176005
H        0.56174849       0.43756645      -0.88309846
H        0.56614311       0.43319267       0.89458820
H        2.91666976      -0.51891229      -0.88479273
H        2.92097189      -0.52100673       0.88127403
