16
Properties=species:S:1:pos:R:3 -1628.681574474833=T 10.533383=T 11.35609=T -9.0014=T -6.8391=T -10.398=T 1.091=T -0.8154=T 0.071=T 9.98438=T 0.58464=T 3.7083840642=T 11.5571318152=T 0.164229992=T pbc="F F F"
O        0.71362296       0.42152198       0.23422152
C        1.91049575       0.25733407       0.36375956
C        2.99338786       1.22257923      -0.09333860
C        2.47000820       2.65668894      -0.34635947
C        3.16549053       3.51377007       0.73491067
N        3.54904803       2.52463080       1.75472922
C        4.07767380       1.39138115       0.99075286
H        2.30857915      -0.68177542       0.83342550
H        3.42928779       0.75965066      -0.99693760
H        1.37735758       2.66127167      -0.23204394
H        2.70584592       3.01213340      -1.35711761
H        4.04320432       4.03169232       0.29330934
H        2.50179116       4.27615279       1.16739704
H        4.23370655       2.89842588       2.41440979
H        5.05741918       1.59592591       0.50802184
H        4.19104123       0.49932653       1.62745987
