17
Properties=species:S:1:pos:R:3 -1688.7348363693038=T 11.655903=T 12.22644=T -7.9664=T -5.9955=T -8.741=T 0.8959=T -0.0955=T 0.992=T 8.2017=T -0.31059=T 4.7697042242=T 5.418560158=T 0.179810387=T pbc="F F F"
C        1.03310224       0.07799254       0.01555544
C        2.52995195       0.01104961      -0.08989492
N        3.15351680       1.09782088      -0.41480887
N        4.52953918       1.05718440      -0.57046901
C        5.26706490       0.03869611       0.17701306
C        4.68338935      -1.32547205      -0.18010666
C        3.18704007      -1.33140859       0.16020493
H        0.55176798      -0.58355537      -0.72436163
H        0.68810950       1.10511685      -0.15174403
H        0.68974063      -0.25668141       1.00837332
H        4.88861625       2.00140835      -0.44371231
H        6.32823242       0.10979357      -0.10273177
H        5.18593138       0.20133797       1.27229782
H        5.21331386      -2.12719410       0.35411117
H        4.82608820      -1.49448142      -1.25837471
H        3.02388425      -1.61156386       1.21661239
H        2.65945105      -2.10086350      -0.42944420
