18
Properties=species:S:1:pos:R:3 -1737.9908433399455=T 11.266323=T 12.55771=T -8.9381=T -6.7736=T -10.262=T 0.8512=T -0.0769=T 2.967=T 9.52793=T -2.70412=T 8.0429966172=T 13.423282297=T 0.097566556=T pbc="F F F"
C        2.13371890      -0.53406535      -1.45340911
N        2.22335082       0.01244458      -0.09855837
C        3.10576447       1.16538731      -0.01626472
C        2.50552937       2.52411894      -0.43143917
O        2.90414280       3.12993219       0.83344462
C        3.25070999       1.81458517       1.37800513
C        4.59433340       1.80465931       2.07069535
H        1.50873550      -1.43727876      -1.44453938
H        3.11559699      -0.78875129      -1.90543736
H        1.64406680       0.19910861      -2.11237390
H        2.56878726      -0.71507386       0.53344530
H        4.09582463       0.99599592      -0.49174056
H        1.40760042       2.48795257      -0.54020446
H        2.95871815       3.04547698      -1.28846986
H        2.44945047       1.46340117       2.05617791
H        5.39013726       2.13115716       1.38651567
H        4.83079551       0.79233817       2.43326369
H        4.58354726       2.47980117       2.93809919
