14
Properties=species:S:1:pos:R:3 -1437.062617443674=T 12.565079=T 13.3342=T -8.8029=T -6.868=T -9.361=T 0.5273=T -1.1928=T -0.222=T 8.82954=T 0.78603=T 3.6092572572=T 11.8141547932=T 0.554528437=T pbc="F F F"
C        0.97271170      -0.06377290       0.00310779
C        2.51119014      -0.03593421      -0.00018381
C        3.06086782       1.31199028      -0.00004427
C        3.48039516       2.45784295       0.00003498
C        4.06750294       3.74260646       0.00010105
N        3.32918789       4.80806502       0.00003140
O        4.14598839       5.95700802       0.00011643
H        0.61107536      -1.10099491       0.00299161
H        0.57246189       0.44467185      -0.88383098
H        0.57629098       0.44313230       0.89264326
H        2.89479047      -0.57761519      -0.88193062
H        2.89860638      -0.57937545       0.87880225
H        5.16367335       3.82547361       0.00019179
H        3.48474752       6.67279217       0.00004910
