14
Properties=species:S:1:pos:R:3 -1434.0671233131493=T 9.838878=T 10.65841=T -9.1461=T -7.1852=T -10.268=T 0.6101=T -0.4695=T 0.419=T 9.80166=T 0.20788=T 4.3651503048=T 5.9857093178=T 0.207856842=T pbc="F F F"
O        0.97497506      -0.00473021       0.51131803
C        2.30913134      -0.01347643       0.03848046
C        3.19020879       1.03621206       0.76120086
N        4.12579507      -0.04692448       1.09753453
C        3.26081504      -1.12683133       0.59377169
C        5.22002434      -0.03875436       1.90037067
O        5.72234537       0.97113415       2.38700662
H        0.43716577      -0.57592697      -0.06334538
H        2.35103055       0.06891513      -1.05907487
H        2.69371783       1.46792294       1.64417794
H        3.62182664       1.83851988       0.14736111
H        3.73277097      -1.78729625      -0.14905524
H        2.78548492      -1.72198548       1.39003732
H        5.62928830      -1.06661865       2.05275627
