13
Properties=species:S:1:pos:R:3 -1377.3083459558986=T 10.022964=T 10.39573=T -8.9369=T -6.9268=T -9.696=T -0.2735=T -2.1784=T -1.342=T 9.01996=T 1.73382=T 3.228099496=T 6.8325212992=T 0.21555723=T pbc="F F F"
O        1.06394955       0.01584585       0.27607383
C        2.26363328       0.06485182       0.05228036
C        3.02853607       1.33759836       0.02891096
N        4.28446589       1.36409967      -0.29614111
C        4.67089744       2.78759816      -0.20657443
C        3.34410287       3.59044486      -0.11828749
N        2.42962773       2.53834407       0.35918552
H        2.87953414      -0.83576712      -0.17164885
H        5.27860960       2.91507963       0.70650388
H        5.29966156       3.07278425      -1.06078023
H        3.03178433       3.97358525      -1.10607588
H        3.39551440       4.43059254       0.58666480
H        1.42311315       2.61730267       0.22746864
