16
Properties=species:S:1:pos:R:3 -1579.1222638946904=T 10.519071=T 11.51213=T -8.9053=T -6.8091=T -10.059=T 0.9273=T 0.0135=T 2.73=T 9.65913=T -2.41858=T 7.7516295172=T 11.6294032546=T 0.196175667=T pbc="F F F"
C       -1.66632940       0.59957967       0.30034964
N       -1.63046665      -0.83634598      -0.23049745
C       -0.12091426      -0.75706575       0.04300138
C        1.22057275      -1.07676229      -0.59301285
C        1.99970020       0.19032388      -0.03217003
O        1.03480726       1.23000750       0.38774805
C       -0.18458592       0.71594014      -0.15068172
H       -2.41132967       1.25663233      -0.16687292
H       -1.80147969       0.57214898       1.39080635
H       -1.77204803      -0.77628055      -1.24874317
H       -0.04290764      -0.96722047       1.12431789
H        1.70117943      -2.01118037      -0.27293380
H        1.18083084      -1.05227701      -1.69174978
H        2.59976239      -0.06525190       0.85313618
H        2.66107937       0.61460664      -0.80291722
H       -0.22675098       0.94225518      -1.23847053
