12
Properties=species:S:1:pos:R:3 -1284.17156160032=T 9.466106=T 10.23424=T -9.7998=T -7.5613=T -10.049=T 0.8635=T -1.0971=T -0.088=T 10.121=T 0.75591=T 3.67928455=T 10.7563310384=T 0.342208878=T pbc="F F F"
C        0.96758637      -0.04608544       0.08275184
C        2.51092976       0.01835812      -0.01345440
C        2.97279307      -0.80415356      -1.22374671
O        3.67432020      -0.41847110      -2.13131570
C        3.02189661       1.38026518      -0.00315449
C        3.43287874       2.52109722       0.00566526
H        0.62938796       0.41312266       1.01924999
H        0.62297179      -1.08979282       0.06211400
H        0.50939163       0.49499995      -0.75531588
H        2.92142574      -0.52736515       0.86010164
H        2.57846610      -1.85481087      -1.19465555
H        3.80306204       3.52585581       0.00597001
