15
Properties=species:S:1:pos:R:3 -1461.684044807496=T 12.900616=T 12.26702=T -7.7209=T -5.8989=T -8.542=T 1.1606=T -0.3799=T 0.372=T 7.79741=T 0.26111=T 4.713017825=T 4.812888548=T 0.420172098=T pbc="F F F"
C        0.90169243       0.23810339       0.09067429
N        2.34865874       0.21389544       0.02663560
C        2.99371002       1.32832365       0.04363367
N        4.36004924       1.28008609      -0.02149100
O        4.89456823      -0.00455418      -0.09812968
C        5.24047086       2.34445826      -0.01377630
C        6.58026394       2.25161680      -0.07226352
H        0.55498358      -0.33954433       0.96209360
H        0.47889310      -0.24608572      -0.80358547
H        0.48155374       1.25832539       0.16229442
H        2.56810478       2.34058749       0.10619743
H        4.03820640      -0.53051607      -0.08090565
H        4.71842595       3.30123132       0.04604142
H        7.08527504       1.29048620      -0.13178503
H        7.17472395       3.16139626      -0.06076378
