17
Properties=species:S:1:pos:R:3 -1691.1345677713775=T 11.657644=T 13.26407=T -9.2331=T -7.1089=T -10.48=T 0.7223=T -0.2896=T 1.459=T 11.39709=T -1.08236=T 5.3859146442=T 11.9261761442=T 0.302730766=T pbc="F F F"
C        1.06351058      -0.27131915       0.09267688
C        2.58687318      -0.27048524       0.06354684
N        3.11247441       1.09978422       0.07665612
C        4.56923919       1.14941527       0.12089775
C        5.04296289       2.61122957       0.03046830
C        6.49658760       2.72812512       0.02332458
N        7.66073473       2.80145465       0.01533579
H        0.67538987      -1.29772245       0.04087087
H        0.65783950       0.29963665      -0.75391000
H        0.68293936       0.17939403       1.02256329
H        2.94288187      -0.75156229      -0.86307332
H        2.97885569      -0.88155099       0.90566412
H        2.73244733       1.58708578       0.89483464
H        4.95835593       0.59494626      -0.74768499
H        5.00927937       0.67610114       1.02397488
H        4.65520840       3.19213202       0.88350264
H        4.63742008       3.07181543      -0.88327840
