20
Properties=species:S:1:pos:R:3 -1934.8935347241645=T 12.553499=T 13.92064=T -8.7253=T -6.7838=T -10.387=T 0.9805=T 0.091=T 3.304=T 9.66394=T -2.9931=T 8.5011744816=T 11.695537387=T 0.202126671=T pbc="F F F"
C        1.30756207       0.23830949       0.18618100
C        2.77972229      -0.00775852      -0.14407058
C        2.94985348      -0.78764396      -1.44806709
N        3.46864853       1.28840523      -0.26565263
C        3.92625077       1.88448083       0.99687016
C        4.90521920       1.29166244       0.03507871
C        5.80522347       2.13371502      -0.83442207
H        1.20189129       0.80227384       1.12414104
H        0.76904298      -0.71355803       0.29703011
H        0.83031012       0.81932336      -0.61671495
H        3.23145164      -0.60199217       0.68351182
H        2.51123190      -0.22637573      -2.28631028
H        2.45202219      -1.76569483      -1.38361197
H        4.01269940      -0.96002579      -1.67125853
H        3.73404111       1.33029666       1.92293890
H        3.82200159       2.97011095       1.07470639
H        5.32640363       0.32668630       0.35037507
H        5.30442903       3.07197828      -1.10896751
H        6.06605265       1.60392250      -1.76306903
H        6.74045266       2.37833412      -0.30849856
