17
Properties=species:S:1:pos:R:3 -1659.4558450264235=T 12.046635=T 13.08616=T -9.1535=T -6.9339=T -9.795=T 0.8536=T -0.1222=T 2.303=T 9.4275=T -1.89137=T 4.3550950402=T 10.5861478548=T 0.619855959=T pbc="F F F"
N        1.67776664      -0.87415407      -0.71680487
C        2.96578868      -0.48736400      -0.11431326
C        3.14442927       1.03775636      -0.21010420
N        2.06488048       1.80640771       0.42230253
C        4.49064127       1.49835318       0.38540762
C        5.66586618       0.96750115      -0.29252021
C        6.64536534       0.53185211      -0.86324789
H        1.43740511      -1.83111163      -0.45285189
H        1.76029870      -0.87434504      -1.73720522
H        3.84351768      -0.98953861      -0.56355077
H        2.93804306      -0.76814433       0.95297724
H        3.14804447       1.30968435      -1.28213991
H        2.10406410       1.65867113       1.43767799
H        1.18241952       1.37545733       0.12339693
H        4.52791783       1.21499928       1.45373725
H        4.51129253       2.59967011       0.35502765
H        7.51042914       0.15192497      -1.36697899
