13
Properties=species:S:1:pos:R:3 -1372.5663600954354=T 11.694287=T 11.37507=T -9.5087=T -7.6398=T -10.088=T -0.8271=T -2.5758=T -1.604=T 9.35003=T 1.95648=T 3.3076737108=T 4.9369117438=T 0.692489212=T pbc="F F F"
N        3.34194012      -1.33548263       0.02448382
C        2.54868347      -0.20180057      -0.09081588
N        1.25373753      -0.15513926      -0.11730475
C        3.24117757       1.10040448      -0.11359541
C        4.55552610       1.32885076       0.09304997
C        5.09784856       2.69233476       0.03400195
O        6.27851857       2.96893091       0.19941744
H        4.28844404      -1.27786145      -0.34169271
H        2.88674826      -2.22310006      -0.16778418
H        0.84239441      -1.09928666      -0.07897236
H        2.56679232       1.93925758      -0.30599241
H        5.27416150       0.53861496       0.32712509
H        4.34009754       3.48897717      -0.18102056
