14
Properties=species:S:1:pos:R:3 -1471.7179119823525=T 9.364467=T 10.31354=T -9.8605=T -7.7708=T -11.011=T 0.6943=T -0.2495=T 0.397=T 10.30466=T 0.17971=T 4.8118594642=T 6.6086149818=T 0.115969696=T pbc="F F F"
C        1.01274291      -0.05011938       0.10464950
C        2.52111181       0.03338399       0.01301608
C        3.16715301       1.20785027       0.77087886
N        4.43069453       0.59760762       1.15747693
C        4.29302672      -0.78096673       1.25892964
O        5.04367567      -1.56965194       1.78890001
O        3.12407505      -1.14670316       0.61862603
H        0.64112438      -0.93528564      -0.42716919
H        0.55878830       0.84030296      -0.35395416
H        0.69029517      -0.10985236       1.15341225
H        2.84652112       0.05046315      -1.04212078
H        2.55549050       1.50302947       1.64367838
H        3.30867531       2.08271289       0.12121172
H        5.04375553       1.03383885       1.83958475
