18
Properties=species:S:1:pos:R:3 -1822.4742794744063=T 12.169463=T 12.97561=T -8.8258=T -6.6553=T -8.647=T 0.8736=T -0.0331=T 1.483=T 8.09321=T -0.79808=T 5.8822306022=T 0.310493311=T pbc="F F F"
C        0.98174006       0.02323003       0.02604925
C        2.47555708      -0.02258445      -0.02556266
C        3.25976076      -1.11397753      -0.08831127
C        4.72438097      -0.76326761      -0.06585246
C        4.73614359       0.76787925      -0.37160302
N        4.96413934       1.11725741      -1.78379817
C        3.31754340       1.23460618       0.03931789
H        0.54195878      -0.98221457      -0.01995732
H        0.57334444       0.61814061      -0.80734481
H        0.63300898       0.50754317       0.95328803
H        2.88711728      -2.14034641      -0.11812217
H        5.16431205      -0.97726468       0.92643997
H        5.32627764      -1.32422525      -0.80059539
H        5.51382824       1.28143339       0.21378439
H        4.26321980       0.63931641      -2.36079764
H        5.87164567       0.75123798      -2.08531636
H        2.96325503       2.03530945      -0.63027378
H        3.30548688       1.65078660       1.06291551
