20
Properties=species:S:1:pos:R:3 -1889.7289207903868=T 12.074877=T 13.9244=T -9.2921=T -6.9506=T -10.66=T 0.929=T -0.0463=T 2.988=T 10.01288=T -2.77173=T 8.751427824=T 9.785161099=T 0.09642057=T pbc="F F F"
N        1.24669929      -0.23031343       0.87729958
C        2.52736089       0.46420483       1.08488493
C        2.92032253       1.25890333      -0.16011792
C        4.27293591       1.96379181      -0.02530126
C        4.65503007       2.77516127      -1.26639473
C        6.00011913       3.47164973      -1.12449369
O        6.25448594       4.20816411      -2.33021617
H        0.49595018       0.45843348       0.77387923
H        1.01040424      -0.78213294       1.70515528
H        3.29430535      -0.30449304       1.27919886
H        2.53327423       1.14489614       1.96243876
H        2.13759488       2.01077924      -0.36962360
H        2.93100447       0.57455828      -1.02432521
H        5.05517060       1.21013846       0.17672322
H        4.25299752       2.62882689       0.85668407
H        3.88606842       3.53868496      -1.47085500
H        4.69081016       2.11938422      -2.15199462
H        6.79479840       2.72074627      -0.94914385
H        5.98078363       4.14925003      -0.24877699
H        7.11668416       4.64650635      -2.23821088
