17
Properties=species:S:1:pos:R:3 -1642.1313766144779=T 11.082592=T 11.66467=T -9.1745=T -7.0336=T -9.531=T 0.8919=T -0.1013=T 1.389=T 8.97399=T -0.8031=T 6.70454295=T 0.435564942=T pbc="F F F"
C        0.92684027      -0.07244479      -0.06815940
C        2.46881089      -0.03960205       0.06952931
C        2.89136923      -0.77471229       1.34606972
N        3.15280244      -0.70384330      -1.07075657
C        2.91147480       1.41236962       0.05252981
C        3.45081839       2.11098327       1.05520198
H        0.60594611       0.44283462      -0.98638574
H        0.43330346       0.41692238       0.78518779
H        0.57350882      -1.11440054      -0.12096678
H        2.42772709      -0.33027153       2.23755396
H        3.98343223      -0.75484476       1.45740284
H        2.57103734      -1.82657598       1.29584955
H        2.89222253      -0.23366532      -1.94336904
H        2.79930470      -1.66237755      -1.15494374
H        2.73237087       1.92108786      -0.90407973
H        3.65629131       1.66789425       2.03153292
H        3.71167953       3.16265611       0.92838311
