13
Properties=species:S:1:pos:R:3 -1368.8731465398641=T 10.137315=T 10.78203=T -8.6889=T -6.7891=T -9.232=T 1.4375=T -0.1575=T 0.085=T 8.55811=T 0.46357=T 4.8981165244=T 12.2640627914=T 0.272916528=T pbc="F F F"
C        0.97401443      -0.05415137       0.01210163
C        2.44986771       0.12644398      -0.00103396
C        3.26090077       1.22468498      -0.06382713
C        4.58261033       0.68079350      -0.05082635
N        5.77761551       1.38123295      -0.18396162
N        4.57771670      -0.64295859       0.02613300
O        3.20277445      -1.00036979       0.04548502
H        0.47437170       0.92124838       0.01397151
H        0.65555773      -0.61436746       0.90289342
H        0.64039369      -0.61681907      -0.87197833
H        2.96307396       2.26559563      -0.13190745
H        5.80011746       2.25820475       0.33156559
H        6.58930555       0.80365210       0.03244469
