15
Properties=species:S:1:pos:R:3 -1545.0931554417903=T 9.881598=T 10.929=T -9.4506=T -7.2793=T -10.856=T 0.7228=T -1.213=T -0.069=T 10.07892=T 0.72821=T 3.693604933=T 8.0104750894=T 0.150918709=T pbc="F F F"
C        1.03003416      -0.18438980       0.20401763
C        2.50350523       0.03152575      -0.07203203
C        3.22740141       1.16646926       0.71778480
C        4.07655522       0.03504736       1.31880887
O        3.35826999      -0.98054365       0.55581633
C        2.81669967       0.11578065      -1.56394726
O        2.06075043       0.55732716      -2.40733437
H        0.83159425      -0.14648719       1.28272789
H        0.71468544      -1.16551106      -0.17751790
H        0.43819139       0.58653242      -0.30806590
H        2.56844594       1.69831876       1.41458304
H        3.77326671       1.89639454       0.10643486
H        5.14649787       0.05550650       1.05620518
H        3.97042430      -0.12742275       2.40321730
H        3.84308799      -0.25650794      -1.82137844
