19
Properties=species:S:1:pos:R:3 -1819.4607678309217=T 11.744891=T 12.50786=T -8.1483=T -6.072=T -9.482=T 0.8767=T -0.0758=T 3.172=T 8.95978=T -2.87894=T 7.6362109498=T 0.124035606=T pbc="F F F"
C       -1.50160069       0.75566867       0.13860310
C       -1.49890968      -0.76223936      -0.10581269
N       -0.32567292      -1.52837230       0.32192827
C        0.89887435      -1.23648146      -0.41952026
C        1.71174415       0.02940162      -0.03072148
N        0.97762289       1.24620969       0.32695370
C       -0.27144533       1.51266768      -0.39183891
H       -2.41802573       1.18050574      -0.31195768
H       -1.58033099       0.95425470       1.22394693
H       -1.61732702      -0.95026097      -1.18801484
H       -2.38569933      -1.20475636       0.37801590
H       -0.17913497      -1.44162886       1.33084756
H        1.58173049      -2.10255298      -0.34436207
H        0.61108457      -1.17609094      -1.48230624
H        2.36387232      -0.20507234       0.82605520
H        2.39361292       0.24992512      -0.87443969
H        0.78804156       1.25287274       1.33042825
H       -0.47422656       2.59595774      -0.33493346
H       -0.11037002       1.29132185      -1.46083158
