11
Properties=species:S:1:pos:R:3 -1241.9971401538799=T 11.718214=T 10.90688=T -9.3451=T -7.4183=T -9.004=T -0.6968=T -2.3464=T -0.886=T 8.52156=T 1.37979=T 4.606327872=T 0.823660008=T pbc="F F F"
C        1.32842130      -0.37654965      -0.75777932
C        2.55248691      -0.15039144      -0.24091507
C        3.21626218       1.13045287      -0.30682236
C        4.44886724       1.36485738       0.21124935
C        5.09211165       2.62638592       0.14126765
N        5.64823328       3.65655079       0.09879095
H        0.85380668      -1.35515590      -0.69175314
H        0.77097117       0.41648765      -1.26079111
H        3.08873808      -0.96394684       0.25828080
H        2.68646329       1.94839159      -0.80402493
H        5.00365821       0.56811762       0.71418717
