16
Properties=species:S:1:pos:R:3 -1595.8651213740513=T 10.21874=T 11.24553=T -9.2065=T -7.1838=T -10.702=T 0.7093=T -0.3643=T 0.59=T 9.62774=T 0.05548=T 4.3684235352=T 6.743970498=T 0.145333244=T pbc="F F F"
C        1.20149345      -1.13054729       0.27096313
C        2.24386284      -0.34150593      -0.51338929
O        2.41336731      -0.89841878      -1.84280307
C        1.92036622       1.15930867      -0.55506142
C        2.98680627       2.09704523      -1.13804618
N        3.71884103       1.58150514      -2.16852409
O        3.13936326       3.23917343      -0.70560319
H        1.14808544      -0.78411593       1.31275588
H        1.45326119      -2.19955347       0.27210548
H        0.19994221      -1.00760638      -0.17271329
H        3.23264612      -0.48235508      -0.04750590
H        1.53110018      -0.93645039      -2.25695710
H        1.72509889       1.52704350       0.46191225
H        0.98696644       1.31552084      -1.12553784
H        3.55802870       0.62455038      -2.48277511
H        4.43953045       2.16341605      -2.58294026
