9
Properties=species:S:1:pos:R:3 -890.0317547460911=T 5.91858=T 6.10972=T -9.5418=T -7.4004=T -10.875=T 0.7323=T -0.2959=T 0.5=T 9.79962=T 0.0708=T 4.3523673482=T 16.9157447422=T 0.217785922=T pbc="F F F"
C        1.00658565      -0.01870424      -0.00550343
C        2.52712502       0.03794572      -0.00164585
N        3.14941722      -1.18725950       0.00391046
O        3.16170137       1.08938643      -0.00381882
H        0.61876474       1.00419230       0.00764230
H        0.63030304      -0.56038376       0.87419234
H        0.63672879      -0.53375172      -0.90381045
H        2.63478923      -2.05964430       0.00283639
H        4.16382494      -1.21059093       0.00238705
