14
Properties=species:S:1:pos:R:3 -1410.3725328418552=T 9.483813=T 10.06566=T -9.5814=T -7.5556=T -10.674=T 0.9504=T -0.8239=T 0.135=T 10.25223=T 0.44015=T 5.295318074=T 6.2687693558=T 0.174101683=T pbc="F F F"
C        0.96618641       0.00515579       0.01390952
C        2.48485034      -0.00734747      -0.06215502
O        2.90682175      -1.16163094      -0.87771132
N        3.35370033      -0.69984782      -2.11759363
C        3.40006751       0.58949967      -2.11165797
C        3.09135433       1.21303306      -0.77679656
O        4.26212295       1.77194437      -0.16229660
H        0.62670382       0.81871660       0.67105297
H        0.59557073      -0.94560318       0.41741564
H        0.52665983       0.15160961      -0.98304707
H        2.94165296      -0.13907040       0.93000117
H        3.74029025       1.11592512      -3.00233209
H        2.37718102       2.04694105      -0.83317269
H        4.98321777       1.12191452      -0.25601635
