17
Properties=species:S:1:pos:R:3 -1730.5839348177897=T 11.741292=T 13.02054=T -9.2156=T -7.0477=T -9.186=T 1.1803=T -0.0444=T 1.265=T 8.59243=T -0.6334=T 6.304130163=T 0.428894569=T pbc="F F F"
C        1.01603289      -0.15665084      -0.04706543
C        2.50930030       0.02068186      -0.00301575
O        3.25483055      -0.42477928      -1.15732622
C        3.23246873       0.98555166      -0.86896600
C        4.50294983       1.64700306      -0.44853070
C        4.38081436       3.11673294      -0.14634721
C        5.65121505       0.96010391      -0.35919425
H        0.53238864       0.45609493       0.72863052
H        0.74755089      -1.20726201       0.13742368
H        0.61653140       0.13369597      -1.02822475
H        3.00026622      -0.22824991       0.94741283
H        2.61165401       1.57110464      -1.56358613
H        4.02970781       3.67466718      -1.02973382
H        5.34373674       3.54055926       0.16621254
H        3.64641300       3.29958990       0.65508042
H        5.68384293      -0.10123556      -0.60790910
H        6.57535666       1.44592228      -0.04247062
