18
Properties=species:S:1:pos:R:3 -1786.8104739642188=T 12.394759=T 13.34245=T -8.9691=T -6.9381=T -9.158=T 1.2682=T 0.031=T 1.506=T 8.53024=T -0.86551=T 6.4496401326=T 0.411165892=T pbc="F F F"
C        3.12148751      -1.49610323       1.21596380
C        2.78592857      -0.56888981       0.08093327
C        2.10201002      -0.96080142      -1.00462289
C        3.25573103       0.86065313       0.22745200
N        4.71645042       0.93119087       0.39285841
C        5.47668601       1.03211550      -0.85809875
C        5.31995744       2.21837392       0.03522313
H        4.20470082      -1.48985240       1.40663969
H        2.79636475      -2.52370289       1.00990120
H        2.63984941      -1.15762821       2.14839302
H        1.74452610      -1.98702759      -1.11297753
H        1.87165945      -0.26520890      -1.81446714
H        2.81123465       1.30318363       1.13725896
H        2.90638129       1.45963692      -0.63987565
H        4.91158526       1.03648744      -1.79638312
H        6.41897408       0.48097199      -0.88514637
H        6.14576509       2.54596299       0.67119122
H        4.65369812       3.01591804      -0.31258326
