16
Properties=species:S:1:pos:R:3 -1679.5841332712557=T 11.691734=T 12.77642=T -9.8683=T -7.8052=T -9.635=T 1.1153=T -0.4703=T 0.823=T 8.9891=T -0.266=T 5.3614522064=T 6.3526830806=T 0.349544256=T pbc="F F F"
C        2.58861252      -0.24826672      -1.59840410
C        2.36756630       0.25934767      -0.16439471
C        2.88855835       1.65335313       0.08472699
C        2.09767079       2.67886573       0.42718676
C        4.38603432       1.87724747      -0.09037134
C        5.20293009       0.97484592       0.72231853
N        5.84574787       0.24758164       1.36934423
H        2.14499867      -1.24579063      -1.72192066
H        3.65668324      -0.33766927      -1.84433296
H        2.12232317       0.42407807      -2.33330790
H        2.85917184      -0.43410480       0.53985290
H        1.29381377       0.24174357       0.07347218
H        1.01941580       2.54655004       0.53221906
H        2.49537014       3.67806014       0.61483984
H        4.65053982       2.91379529       0.16543427
H        4.67518330       1.72404274      -1.14445307
