14
Properties=species:S:1:pos:R:3 -1535.1281727831768=T 11.934602=T 12.66751=T -9.5528=T -7.5557=T -9.457=T 0.1296=T -1.5215=T -0.149=T 8.9647=T 0.67466=T 4.987584822=T 5.1352149522=T 0.311131292=T pbc="F F F"
N        1.01163407       0.42914886      -1.08077927
C        2.17997761       0.39695208      -1.00957415
C        3.59823244       0.32935901      -0.95014152
C        4.32847662       1.06421143      -0.08297598
C        5.79852571       1.09590031       0.00836276
C        6.70623647       0.37312346      -0.95704621
C        6.60287126       1.87014869      -1.04265270
H        4.07102241      -0.36123347      -1.65246674
H        3.79392689       1.71976881       0.61169097
H        6.17483700       1.21266126       1.02747593
H        6.25434228      -0.21244700      -1.75769334
H        7.61822615      -0.05913265      -0.54590617
H        7.43389187       2.47962370      -0.68743304
H        6.03620923       2.29310551      -1.87230053
