13
Properties=species:S:1:pos:R:3 -1397.3124193735969=T 10.288447=T 11.03418=T -10.3495=T -8.1497=T -10.995=T -0.5678=T -2.3507=T -0.85=T 9.93074=T 1.46856=T 3.6057112576=T 10.821002136=T 0.25481786=T pbc="F F F"
C        0.95612397      -0.02661900       0.23116228
C        2.44242461      -0.05926736      -0.14429383
O        2.62840663      -0.60422591      -1.43163468
C        3.08332832       1.32778349      -0.08759051
O        3.63700035       1.79186606      -1.08386091
C        3.02892530       2.04391047       1.16355849
C        2.97668672       2.63002840       2.22722754
H        0.81354351       0.33542258       1.25805806
H        0.55145902      -1.04365927       0.15604841
H        0.40178683       0.62029926      -0.46237076
H        2.98341464      -0.67234195       0.60841837
H        3.14902714       0.07267938      -1.92230555
H        2.94295296       3.16349385       3.15661309
