16
Properties=species:S:1:pos:R:3 -1680.6888502529541=T 12.10638=T 12.63231=T -8.1271=T -6.1551=T -8.191=T 0.6781=T -0.8361=T 0.654=T 7.66971=T -0.10056=T 4.5311179644=T 7.0286795498=T 0.545478615=T pbc="F F F"
C        0.91446624       0.07791236       0.07329211
C        2.40695520      -0.00617885       0.00193134
C        3.18449339      -1.11285022      -0.08453315
C        4.64842704      -0.71869652      -0.09287366
N        5.53080841      -1.24127229      -1.15298196
C        4.58343486       0.79083222      -0.06705489
C        3.29332861       1.18024142       0.01436487
H        0.45125766      -0.91588887       0.01649230
H        0.51296088       0.69236415      -0.74874825
H        0.58872102       0.55393671       1.01200780
H        2.83966042      -2.14692856      -0.11177763
H        5.08833126      -1.04005992       0.87469621
H        5.11435278      -1.01521306      -2.06152672
H        5.55390985      -2.26323658      -1.09933658
H        5.47124128       1.41976804      -0.09415061
H        2.93278110       2.20786996       0.08165882
