17
Properties=species:S:1:pos:R:3 -1632.8100534579778=T 11.360433=T 12.31783=T -8.563=T -6.6082=T -9.544=T 0.7785=T -0.2629=T 1.011=T 8.75808=T -0.48594=T 5.049205864=T 8.7467535518=T 0.23062542=T pbc="F F F"
O        2.61571926      -0.69603549       0.89719587
C        2.21472283       0.15379640      -0.18979135
C        2.83653006       1.52545371       0.02629961
C        4.37180131       1.50278145      -0.01894620
N        4.99495075       2.80079574       0.21383353
C        5.15428423       3.73455681      -0.78792018
N        5.43669977       4.98779041      -0.71277177
H        2.22275332      -1.57315507       0.75670699
H        1.11423217       0.24794527      -0.22892380
H        2.55180422      -0.26571411      -1.15797231
H        2.50170726       1.91671860       1.00138211
H        2.45609649       2.21411869      -0.74522854
H        4.71113327       1.14218875      -1.00395905
H        4.75366318       0.78885847       0.72421945
H        4.95878871       3.15866761       1.16680124
H        5.05629700       3.28760043      -1.79012436
H        5.50073617       5.29823233       0.26955875
