17
Properties=species:S:1:pos:R:3 -1684.176382451812=T 11.672474=T 12.72357=T -8.7367=T -6.7741=T -9.583=T 0.7675=T -0.1252=T 1.003=T 8.79258=T -0.46286=T 5.0071622114=T 9.0383438266=T 0.194053725=T pbc="F F F"
C        0.85783131       0.15636475      -0.15799800
C        2.31999311      -0.18739748       0.01326145
C        3.04195887      -1.03072160      -1.01009738
C        3.36236829       0.44750143      -0.87597973
N        4.61725163       0.82524144      -0.29411859
C        5.79844604       0.80876628      -1.01913493
N        6.03088394       0.31882026      -2.18396457
H        0.59079665       1.06960466       0.39497377
H        0.21730557      -0.65969682       0.20822155
H        0.61081270       0.32131311      -1.21697831
H        2.64536075      -0.34483673       1.04529672
H        2.48898484      -1.34810834      -1.89560186
H        3.80069033      -1.72858587      -0.65711199
H        2.98957601       1.09931201      -1.67667756
H        4.58357226       1.46704020       0.49432796
H        6.63205501       1.26480649      -0.46469072
H        5.17099270      -0.07770379      -2.59058781
