19
Properties=species:S:1:pos:R:3 -1787.6971801018935=T 11.286197=T 12.49567=T -9.1244=T -6.9197=T -10.497=T 0.9083=T -0.0412=T 3.098=T 9.83634=T -2.84125=T 8.5367708622=T 11.382038786=T 0.159101811=T pbc="F F F"
C        1.14760800      -0.31569271       0.01534892
C        2.67592662      -0.29358551      -0.04010041
C        3.25495722       1.12196730       0.02514446
C        4.78959755       1.18415033       0.02490411
C        5.28563654       2.62782084      -0.14205149
N        5.30846351       0.50608648       1.22974819
H        0.75792835      -1.34229287      -0.04407933
H        0.70563603       0.25674069      -0.81550272
H        0.77690932       0.12621512       0.95353691
H        3.01857003      -0.77706049      -0.97177131
H        3.09743541      -0.88753018       0.78513717
H        2.88409588       1.63180154       0.93557762
H        2.87763945       1.71448264      -0.82637613
H        5.15016130       0.59322170      -0.83740605
H        4.92869911       3.25904410       0.68823462
H        4.92536167       3.07399357      -1.08255778
H        6.38534190       2.66960984      -0.14876244
H        5.05415787       1.05714666       2.05705223
H        6.33166425       0.49935096       1.20475344
