15
Properties=species:S:1:pos:R:3 -1477.492546271575=T 11.251755=T 11.54624=T -8.5406=T -6.5788=T -9.231=T 0.7209=T -1.2186=T -0.055=T 8.63056=T 0.76724=T 3.6784910396=T 5.372189394=T 0.324574648=T pbc="F F F"
C        0.87064163       0.13862591       0.64567554
C        2.27635516       0.18720041       0.02975856
N        2.26523274      -0.05552133      -1.39921985
N        2.11128797      -1.35353642      -1.77110661
C        2.46321363      -1.69913293      -2.96014829
C        2.95517199       1.50771288       0.31834251
O        3.51711738       2.19243931      -0.51798765
H        0.91152822       0.28663061       1.73417968
H        0.42892592      -0.84464464       0.44344589
H        0.22779874       0.90919962       0.19870718
H        2.90359510      -0.56700256       0.55643697
H        2.94412080       0.51792167      -1.91821834
H        2.28946275      -2.73444455      -3.25282620
H        2.91619191      -1.00491760      -3.68550504
H        2.91636607       1.81798963       1.39218565
