13
Properties=species:S:1:pos:R:3 -1345.8986133973035=T 12.318613=T 11.79626=T -9.5446=T -7.6073=T -10.093=T -0.9488=T -2.6947=T -1.498=T 9.66398=T 1.9416=T 3.184456424=T 4.8314740494=T 0.785558119=T pbc="F F F"
C        0.72581242       0.15629333      -0.02169906
C        2.18862680      -0.04328347      -0.17292322
N        3.02927480       0.84063427       0.25340463
N        4.35028646       0.43795024       0.00282673
C        5.21632744       1.29918084       0.42393910
C        6.64555459       0.98690806       0.21669144
O        7.54830934       1.72917212       0.57516144
H        0.28957227      -0.67087333       0.56057035
H        0.23615235       0.12823088      -1.00804239
H        0.50590782       1.10961524       0.47179990
H        2.56031485      -0.96114131      -0.65660723
H        4.93642744       2.23839756       0.92143291
H        6.83577342       0.01347557      -0.29591459
