12
Properties=species:S:1:pos:R:3 -1272.408030313713=T 11.718407=T 12.08353=T -7.597=T -5.6991=T -8.175=T 0.7919=T -0.1403=T 0.542=T 7.62641=T 0.0855=T 3.8920073302=T 10.2351806846=T 0.252167782=T pbc="F F F"
N        0.91757651       0.03971512      -0.23028787
C        2.31475299       0.03691282      -0.08374344
C        3.18150592       1.12293542      -0.04890275
N        4.47520682       0.63099581       0.02912507
C        4.46889746      -0.73995723       0.03666368
C        3.13997668      -1.12607568      -0.03057862
Cl       2.54035465      -2.75955907      -0.02532107
H        0.46239131       0.79039415       0.28581623
H        0.51357582      -0.85712297       0.04040863
H        2.98077966       2.18760214      -0.08471826
H        5.30856867       1.20443403       0.05803340
H        5.37464351      -1.33113454       0.09198500
