17
Properties=species:S:1:pos:R:3 -1770.4401785242908=T 11.025658=T 12.20639=T -9.0589=T -7.0302=T -10.504=T 1.1038=T -0.6412=T 0.352=T 9.56376=T 0.41377=T 3.7403600536=T 10.922050726=T 0.120746611=T pbc="F F F"
C        0.97299713       0.01077675      -0.08126667
C        2.49246340      -0.01322388       0.05138829
C        3.07335821       1.13491702       0.91073960
C        4.49792949       0.67868372       1.24824602
C        4.41871290      -0.85116049       1.29554998
O        5.28388843      -1.59765533       1.71504995
C        3.06348307      -1.27287711       0.72375834
H        0.60922947      -0.81566359      -0.70914013
H        0.62728802       0.95192292      -0.53465136
H        0.49423492      -0.08197797       0.90666417
H        2.93739084       0.06471195      -0.95802050
H        2.47884381       1.23030803       1.83591812
H        3.03256495       2.10479567       0.39525681
H        5.20390293       0.93566513       0.43921806
H        4.92182173       1.07787031       2.17923820
H        3.16133278      -2.15622916       0.07844564
H        2.43248792      -1.56928395       1.58246548
