14
Properties=species:S:1:pos:R:3 -1407.0077108144956=T 10.212998=T 10.86576=T -9.6511=T -7.4895=T -10.66=T 0.9931=T -1.062=T -0.321=T 10.37769=T 0.95208=T 3.6743499072=T 6.6100284222=T 0.181214104=T pbc="F F F"
O        0.61408368       1.07915007      -0.78648656
N        2.00818379       0.96199535      -1.02029036
C        2.68061890       1.33438258       0.00627243
C        4.17717598       1.28393738      -0.05409158
C        4.83307149       2.66978986       0.02218710
C        4.73321046       3.36196114       1.35879354
O        4.22238073       2.88704360       2.35697265
H        0.24398274       0.75881372      -1.62886338
H        2.18402052       1.68972985       0.91874342
H        4.47124858       0.78841321      -0.98936559
H        4.54636804       0.67422702       0.78671246
H        4.42365520       3.35521403      -0.74167673
H        5.91205240       2.60430531      -0.21137214
H        5.18978747       4.38599689       1.38504475
