13
Properties=species:S:1:pos:R:3 -1387.5132411598279=T 12.641768=T 12.45594=T -8.4734=T -6.6108=T -8.727=T 0.1858=T -1.3836=T 0.102=T 8.09674=T 0.39049=T 4.1546964684=T 5.2364743184=T 0.276019232=T pbc="F F F"
C        0.79811346       0.06043256       0.06812765
C        2.15133344       0.02365823       0.01979447
N        2.95164220      -1.13717591      -0.02175584
C        2.51464345      -2.45158185      -0.00947749
N        3.22482751      -3.51996286      -0.04233137
C        2.91603185       1.23085733       0.00607937
C        3.60528876       2.23199910      -0.00723697
H        0.30078820       1.02548387       0.09766701
H        0.17933900      -0.83340564       0.07908594
H        3.95588982      -0.97678898      -0.05773582
H        1.42469564      -2.55260434       0.03389380
H        4.23384449      -3.30629556      -0.08197187
H        4.19494218       3.12612405      -0.01606888
