17
Properties=species:S:1:pos:R:3 -1636.0702642538236=T 10.91051=T 11.67259=T -8.6787=T -6.7307=T -9.935=T 0.7783=T -0.1764=T 0.46=T 9.54271=T 0.21354=T 4.3026985566=T 5.7107703628=T 0.13150354=T pbc="F F F"
C        3.23640572      -0.77645018      -1.28287315
C        3.29011992      -0.18039370       0.12380782
N        3.38565398       1.28099332       0.13621782
N        2.20663730       1.94023261      -0.32632065
C        4.55766716       2.00454663       0.10697129
C        5.84371882       1.26340184       0.42980472
O        4.54971933       3.21271881      -0.16525750
H        3.08847100      -1.86452054      -1.23077259
H        4.16718956      -0.58226273      -1.83498248
H        2.40156963      -0.33704731      -1.84407667
H        4.13975553      -0.57969977       0.69186425
H        2.38076715      -0.45155488       0.68253282
H        2.56290213       2.79902429      -0.77236421
H        1.70897024       2.27409317       0.50946855
H        5.80505299       0.78431816       1.41796937
H        6.65403948       1.99901502       0.42114160
H        6.06310005       0.48620528      -0.31625101
