17
Properties=species:S:1:pos:R:3 -1683.1952704187818=T 12.511731=T 13.0316=T -8.6572=T -6.7512=T -9.466=T 1.2271=T -0.34=T 0.918=T 8.70834=T -0.3856=T 5.0121092528=T 6.0359608436=T 0.315236713=T pbc="F F F"
C        0.88906487       0.09820304       0.34967264
C        2.21443946       0.49227329      -0.31022932
N        2.26578480       0.12723770      -1.73273763
C        2.64826545      -1.12674821      -2.16420808
N        2.49285059      -1.68549212      -3.31162709
C        2.58439196       1.95168682      -0.17659343
C        1.87624660       2.89494652       0.45364701
H        0.90431729       0.30307943       1.42950848
H        0.70517444      -0.97458919       0.20563968
H        0.04729613       0.64993243      -0.09466784
H        3.02579185      -0.08992458       0.16563035
H        1.64619086       0.65556317      -2.34650009
H        3.19900941      -1.68296219      -1.38923698
H        1.96346255      -1.07966087      -3.95757322
H        3.52452141       2.22044286      -0.66957977
H        0.93193271       2.67756592       0.95593612
H        2.22719963       3.92672596       0.49268918
