15
Properties=species:S:1:pos:R:3 -1428.2916166419657=T 10.435659=T 11.08574=T -9.0262=T -6.9695=T -10.377=T 1.6937=T -0.0879=T 0.575=T 9.89379=T 0.02554=T 5.4301280518=T 12.8834224558=T 0.334462319=T pbc="F F F"
C        0.68374302      -0.29766258       0.25232802
C        2.07929488      -0.86221794       0.07577216
O        2.94535853       0.23875406      -0.26717705
N        4.25633715      -0.25180222      -0.44470517
C        5.06627453       0.69211066      -0.76248177
C        6.50779641       0.38494999      -0.99513695
H       -0.01171235      -1.10639483       0.51556523
H        0.32921956       0.17426752      -0.67444811
H        0.66039640       0.45225057       1.05508448
H        2.11307767      -1.61302327      -0.73117614
H        2.44536559      -1.33494809       1.00240341
H        4.70599508       1.72618650      -0.86412466
H        6.70080523      -0.68506655      -0.85162904
H        7.14504100       0.95931730      -0.30466194
H        6.80693731       0.66872887      -2.01628248
