17
Properties=species:S:1:pos:R:3 -1640.8395853628601=T 10.566729=T 11.61186=T -8.919=T -6.8175=T -10.467=T 0.8844=T -0.028=T 2.91=T 9.93293=T -2.59728=T 8.2422917136=T 11.387928121=T 0.284349969=T pbc="F F F"
C        1.04960663       0.04610728      -0.12235760
C        2.55494284       0.12554316      -0.04737477
N        3.41775184      -0.55562063      -1.05036202
C        3.41413655       0.93388898      -0.96747889
C        2.81516629       1.73424419      -2.10602029
C        4.70673361       1.51079921      -0.42305910
H        0.58308947       0.80659920       0.52286170
H        0.70143672      -0.93911037       0.22387087
H        0.66951057       0.19188782      -1.14295595
H        2.94395611       0.00290324       0.97107530
H        2.82313698      -0.83838031      -1.83989974
H        1.87398865       1.30749443      -2.47751387
H        3.52082621       1.77464549      -2.95117149
H        2.61561911       2.77174961      -1.79432409
H        5.11456689       0.86669541       0.36676858
H        4.54609743       2.51813498      -0.00862259
H        5.46250410       1.58696831      -1.22049605
