18
Properties=species:S:1:pos:R:3 -1735.7626043840255=T 11.260414=T 12.59692=T -8.7716=T -6.6791=T -10.014=T 0.8914=T -0.0482=T 3.003=T 9.30488=T -2.75314=T 7.8014222948=T 12.5020539184=T 0.102060154=T pbc="F F F"
C        0.80570917      -0.28911284       0.38217415
C        2.17435497      -0.40600685      -0.27823952
N        3.19416911       0.31524029       0.49061868
C        4.52083432       0.24986861      -0.07674164
C        5.65341975       0.89735153       0.74142995
O        6.51727923      -0.25849297       0.54130723
C        5.40645611      -1.03160691       0.00407990
H        0.03977289      -0.80312988      -0.21506877
H        0.51680391       0.76540198       0.49203110
H        0.80749322      -0.74762058       1.38333059
H        2.14237975       0.04492885      -1.28473120
H        2.42552453      -1.47906233      -0.42432808
H        3.21318806      -0.04117485       1.45179058
H        4.47767040       0.64051160      -1.10529628
H        5.39236136       1.03302270       1.80764282
H        6.10414382       1.82394010       0.35470864
H        5.68151669      -1.53965734      -0.93375801
H        5.03391272      -1.77551112       0.73457985
