11
Properties=species:S:1:pos:R:3 -1151.4536889564426=T 8.699527=T 8.75993=T -9.5018=T -7.4057=T -10.183=T 0.0989=T -1.7397=T -0.811=T 9.53674=T 1.37913=T 3.4394088358=T 5.3793309876=T 0.583422381=T pbc="F F F"
C        0.95488840      -0.01327587      -0.02946330
C        2.43729020       0.08665004      -0.13826947
C        3.18501461       1.15813520       0.19219008
C        4.64244135       1.13372114       0.03906142
O        5.38983025       2.06317448       0.31614918
H        0.67041609      -0.85133055       0.62687503
H        0.50848537      -0.23198481      -1.01280826
H        0.50619101       0.90815722       0.36282044
H        2.96087369      -0.79798668      -0.52393548
H        2.74049766       2.07805818       0.58334819
H        5.04990138       0.16904166      -0.36548782
