17
Properties=species:S:1:pos:R:3 -1751.240558497215=T 11.55323=T 12.44421=T -8.3161=T -6.2469=T -9.018=T 0.8901=T -0.0663=T 1.397=T 8.43556=T -0.78967=T 6.193224686=T 0.391979372=T pbc="F F F"
C        0.94187241       0.03303070      -0.01631775
C        2.46724733       0.04036258       0.02956966
C        3.09217663       1.16956742       0.86965877
C        4.46752169       0.59564297       1.19231144
O        4.26548709      -0.83441486       1.31111173
C        3.10434587      -1.18964439       0.65249624
C        2.67808673      -2.46018932       0.62268570
H        0.56427608      -0.79761271      -0.62872324
H        0.56108492       0.96706189      -0.45390333
H        0.52341549      -0.07371088       0.99516913
H        2.85520087       0.12560517      -1.00354237
H        2.50995970       1.31350236       1.79398867
H        3.14391331       2.12863023       0.33705157
H        5.19246614       0.78650357       0.38112897
H        4.89522533       0.94703007       2.14099851
H        1.75380962      -2.71433281       0.10960914
H        3.24368079      -3.25564199       1.10456716
