16
Properties=species:S:1:pos:R:3 -1562.2972598422652=T 10.178342=T 11.02074=T -9.3965=T -7.2693=T -10.369=T 0.7781=T -1.1917=T -0.129=T 10.15564=T 0.76671=T 3.6823842=T 8.348225352=T 0.117496425=T pbc="F F F"
C        1.31351306      -0.37241818       0.65688161
N        2.68628953       0.11428388       0.78656621
C        2.90868541       1.46757310       0.30549632
C        2.71810649       2.47914572       1.45613477
O        3.47578387       2.07594600       2.58439383
C        4.29890382       1.59168336      -0.29400258
O        5.01548106       0.64200403      -0.54910867
H        1.26751060      -1.41622620       0.99417359
H        0.92079623      -0.32099894      -0.37830867
H        0.64088838       0.21054794       1.30318247
H        3.35317306      -0.50473485       0.31531205
H        2.21973447       1.75900244      -0.52412951
H        1.63977539       2.55654909       1.69530972
H        3.06272885       3.47998000       1.14957545
H        3.38900293       1.09515959       2.58178243
H        4.62193684       2.63967302      -0.51210902
