13
Properties=species:S:1:pos:R:3 -1446.2868015781517=T 11.365226=T 12.00242=T -9.4398=T -7.4109=T -9.988=T -0.3459=T -2.0628=T -0.687=T 9.45908=T 1.3286=T 3.4717071888=T 10.7308271182=T 0.539618828=T pbc="F F F"
C        1.51288039      -0.94697925      -0.39835309
C        2.78343986      -0.55419830      -0.22613765
C        3.12606437       0.88315993      -0.03966113
O        2.29199336       1.77772007      -0.02436671
C        4.62690586       1.23321700       0.08234154
C        5.40861131       0.32432764       0.90477235
C        6.04069291      -0.44166654       1.60307227
H        1.25213382      -1.99504760      -0.54588114
H        0.70724671      -0.20945881      -0.39077912
H        3.60670519      -1.27189174      -0.21673566
H        4.68889528       2.26479622       0.45750373
H        5.02958476       1.24312629      -0.94717215
H        6.60142619      -1.10862491       2.22560676
