15
Properties=species:S:1:pos:R:3 -1566.6696693848583=T 11.093319=T 12.20554=T -9.7167=T -7.5186=T -9.837=T 0.8927=T 0.0063=T 2.143=T 9.42386=T -1.69466=T 4.332132833=T 10.2910487762=T 0.406047409=T pbc="F F F"
C        0.88117112      -0.02103982       0.18921417
C        2.39639607      -0.00460982      -0.05533616
C        3.14914002       1.02377769       0.84523011
O        3.56788412      -0.02130465       1.76303195
C        3.16642666      -1.04605451       0.81505497
C        2.72221724       0.01877247      -1.47099560
C        3.00040996       0.03833191      -2.65329951
H        0.67712302      -0.03831071       1.26910840
H        0.42455807      -0.90844456      -0.27049653
H        0.40930663       0.87123821      -0.24494328
H        2.52073724       1.78225606       1.33807750
H        4.00874857       1.50195231       0.34715013
H        4.03378846      -1.49513479       0.30351458
H        2.55086886      -1.82892693       1.28546147
H        3.24864395       0.05558716      -3.69485221
