17
Properties=species:S:1:pos:R:3 -1682.9680775219606=T 10.421318=T 11.67478=T -9.7575=T -7.5775=T -11.536=T 0.8678=T -0.1331=T 2.547=T 11.28375=T -2.31266=T 9.2002447454=T 11.2536636816=T 0.120607029=T pbc="F F F"
C        0.92416446      -0.03775306      -0.02500045
C        2.43881378       0.01521971       0.05536695
C        3.15736685       1.06431235       0.97535055
O        2.41006488       1.52852160       2.09939060
C        4.22997537      -0.01479235       1.29297164
C        3.22426950      -1.09491279       0.81025580
O        3.67781359      -2.24894443       0.12322673
H        0.59726009      -0.94670231      -0.55070757
H        0.51730325       0.83146903      -0.56190198
H        0.46983627      -0.04410617       0.97698076
H        2.87358284       0.11129708      -0.95635610
H        3.50802768       1.97756707       0.47746726
H        2.16443945       0.76404509       2.64974282
H        5.08874579       0.06231506       0.60762582
H        4.60491757      -0.06282688       2.32494159
H        2.62879791      -1.48977482       1.65047326
H        4.22400074      -1.94995419      -0.62654770
