15
Properties=species:S:1:pos:R:3 -1485.229493564399=T 10.646269=T 11.59764=T -9.3101=T -6.9602=T -9.812=T 0.9677=T -0.0094=T 2.338=T 9.43611=T -1.92679=T 4.3555537884=T 10.5950004552=T 0.62815937=T pbc="F F F"
N        1.11739960      -0.32916843       0.21109505
C        2.57346989      -0.32258002       0.42942580
C        3.18980776       0.93999230      -0.16936484
C        4.71247578       1.04216742       0.05078654
C        5.48276539       0.00400344      -0.62662409
C        6.11848210      -0.85488950      -1.20401539
H        0.70234724      -1.14286709       0.67066160
H        0.92264130      -0.44277820      -0.78790937
H        3.09824642      -1.20838401       0.02117718
H        2.74688165      -0.32393828       1.51898337
H        2.70309671       1.82046680       0.27738521
H        2.98332558       0.97328974      -1.25239221
H        4.93222560       1.00510202       1.13214117
H        5.06475164       2.02670561      -0.29807679
H        6.67897333      -1.61312180      -1.71129325
