15
Properties=species:S:1:pos:R:3 -1545.1316138976597=T 10.715494=T 11.55343=T -9.3008=T -7.1572=T -9.832=T 0.7704=T -1.0944=T -0.045=T 9.33307=T 0.69978=T 3.6704939426=T 6.738825079=T 0.303898054=T pbc="F F F"
O        3.78230063      -1.18345723       0.89752998
C        2.84908106      -0.37349305       0.17131714
C        3.33846512       1.08709621       0.20623152
C        3.41475141       1.62874305       1.60971931
C        2.83857424       2.77008297       2.00430880
C        4.70676872       1.18436094      -0.47165820
O        4.87579347       1.66783047      -1.57527992
H        3.46442582      -2.10083409       0.88100807
H        1.84293521      -0.41619277       0.62626014
H        2.77236650      -0.70054753      -0.88155004
H        2.64254748       1.68622843      -0.40189142
H        3.98976840       1.03068771       2.32310221
H        2.26161510       3.39072525       1.31399178
H        2.92184252       3.11964689       3.03430491
H        5.56247432       0.77604276       0.11835573
