11
Properties=species:S:1:pos:R:3 -1135.5706413178432=T 11.236582=T 12.40523=T -10.683=T -8.692=T -10.54=T -0.2106=T -1.9589=T -0.795=T 10.66464=T 0.95633=T 4.4555360988=T 6.6169344424=T 0.326615047=T pbc="F F F"
C        2.15886420      -0.75333767      -1.07011336
C        2.65864517      -0.11334012      -0.01335145
S        3.27711748       1.54649317      -0.19047148
O        3.13883628       1.97374142      -1.58437458
O        2.75300882       2.34158999       0.92246903
C        4.96802144       1.29456130       0.11092045
C        6.15438049       1.15433004       0.33190731
H        1.72107102      -1.74702305      -0.96802239
H        2.17033721      -0.28635768      -2.05636251
H        2.67848855      -0.48602693       1.01177013
H        7.20272934       1.03178952       0.52204887
