11
Properties=species:S:1:pos:R:3 -1041.6371450087972=T 7.532805=T 7.66796=T -9.3755=T -6.9991=T -9.631=T 1.1714=T -0.1652=T 1.355=T 9.15167=T -0.82588=T 6.7540629584=T 0.431685023=T pbc="F F F"
N        0.89522949      -0.11808492      -0.20517799
C        2.32649505       0.02880409       0.13007304
C        2.74855218       1.46892481       0.07974204
C        3.31797630       2.13761679       1.08700203
H        0.65358457      -1.11197573      -0.22780600
H        0.73028091       0.23003458      -1.15435566
H        2.99707903      -0.55102597      -0.54075454
H        2.48175648      -0.35972143       1.14903524
H        2.58153066       1.98273007      -0.87559800
H        3.49621588       1.66219347       2.05507701
H        3.62685944       3.17850425       0.98055282
