16
Properties=species:S:1:pos:R:3 -1512.6402389744292=T 10.184336=T 11.06574=T -8.4007=T -6.2292=T -9.698=T 0.8872=T -0.0462=T 3.189=T 9.45229=T -2.85558=T 7.9595664378=T 11.7410278504=T 0.13609653=T pbc="F F F"
C        0.96732353      -0.02006010      -0.02095089
C        2.47622683      -0.01508269       0.04532030
C        3.33550685      -0.73914149      -1.00426195
N        2.83026772      -1.47419414      -2.14357776
C        3.30673841       0.75743721      -0.97682976
N        4.50390424       1.51835964      -0.68271577
H        0.54056206       0.85803080       0.48809200
H        0.54234297      -0.91852707       0.45487794
H        0.60695347      -0.00206720      -1.06042107
H        2.89791486      -0.03885144       1.05581745
H        4.25131321      -1.18583939      -0.60046951
H        2.20396364      -0.89742674      -2.70638020
H        2.29568343      -2.29260313      -1.84093311
H        2.71249644       1.21247809      -1.77953225
H        5.17873123       0.93962590      -0.17895670
H        4.28161112       2.31038174      -0.07363870
