18
Properties=species:S:1:pos:R:3 -1784.2585482481513=T 12.509234=T 13.79568=T -9.381=T -7.1368=T -9.753=T 0.8701=T -0.0931=T 2.35=T 9.31069=T -1.91767=T 4.3369186926=T 10.6478184912=T 0.366849795=T pbc="F F F"
C        2.79533625      -0.87966632      -1.11693944
C        2.48404843      -0.01736617       0.10485850
C        3.03983714       1.42167035       0.00808425
C        2.50087598       2.32943772       1.14413581
N        1.04593973       2.49451477       1.02789582
C        4.50130400       1.44338392      -0.00315606
C        5.71595526       1.45639861       0.02094194
H        2.38365075      -1.89204608      -0.99784910
H        3.87953668      -0.97229560      -1.27699457
H        2.35659415      -0.44800069      -2.03010586
H        2.89837313      -0.48511480       1.01350780
H        1.39735133       0.07133694       0.25135185
H        2.69197011       1.85593670      -0.95034757
H        3.06845139       3.27848038       1.13017133
H        2.71716870       1.84086793       2.10731773
H        0.82762229       3.17647589       0.29709004
H        0.66627466       2.87441460       1.89656743
H        6.78657001       1.46644186       0.03552011
