17
Properties=species:S:1:pos:R:3 -1743.8901459174638=T 11.215495=T 12.38084=T -9.4216=T -7.2877=T -10.771=T 1.049=T -0.834=T 0.03=T 9.91117=T 0.64051=T 3.6817146756=T 7.7068209768=T 0.120048186=T pbc="F F F"
C        0.92659043      -0.02559730       0.06650493
C        2.44437344       0.00088744       0.05490880
C        3.19706331       1.07939257       0.88425722
C        4.23628100       0.01076344       1.31293214
C        3.23967726      -1.08692853       0.88037892
C        3.72092769      -2.26338949       0.08824395
O        4.87930862      -2.47327164      -0.23043454
H        0.53078281      -0.91478176      -0.44692117
H        0.51560564       0.85971981      -0.44236904
H        0.54054869      -0.02963921       1.09772584
H        2.81966679       0.00406791      -0.98208088
H        2.58389841       1.41510185       1.73471672
H        3.56295259       1.96188618       0.34195725
H        5.12537252      -0.00467766       0.66778503
H        4.55884494       0.00762192       2.36157970
H        2.60295508      -1.44652722       1.70766761
H        2.90692079      -2.95814832      -0.25242249
