14
Properties=species:S:1:pos:R:3 -1442.2408793666768=T 9.000845=T 9.80867=T -9.5786=T -7.308=T -10.832=T 0.981=T 0.0812=T 3.145=T 10.59426=T -3.00484=T 8.7883012604=T 11.3578739146=T 0.190114894=T pbc="F F F"
C        0.77895161       1.36468499      -0.60156097
C       -0.34596449       0.91600178       0.30019510
C       -1.34680693      -0.04627766      -0.31048500
O       -0.56597908      -1.02774783      -1.01609535
C        0.67520358      -1.18405100      -0.30481582
C        0.97564589       0.17238678       0.30380935
H        0.67738945       1.17901832      -1.67333025
H        1.29658968       2.28575522      -0.33429976
H       -0.65186753       1.53427181       1.14458839
H       -1.95251939      -0.51885532       0.48836988
H       -2.02593967       0.40640336      -1.04930532
H        0.58226591      -1.94510701       0.49547817
H        1.41768524      -1.53141979      -1.03966030
H        1.65948572       0.23383635       1.15081190
