16
Properties=species:S:1:pos:R:3 -1595.2186530802953=T 9.977658=T 10.83871=T -9.4769=T -7.4041=T -10.925=T 0.4738=T -0.5815=T 0.386=T 9.98279=T 0.25305=T 4.3372906506=T 7.6703690928=T 0.131626682=T pbc="F F F"
C        0.88647795      -0.04573730       0.11112686
C        2.40603384       0.09360693      -0.09373588
C        2.91695716      -0.72507060      -1.29331034
N        2.37335547      -0.20672829      -2.57134588
C        2.78027155       1.58870158      -0.15274792
O        2.76716455       2.15525229      -1.37987327
O        3.03568928       2.22954762       0.84907378
H        0.57529918       0.48929061       1.01773298
H        0.60664965      -1.10399897       0.22478439
H        0.31711026       0.37670263      -0.73026426
H        2.90873816      -0.29185652       0.80587552
H        2.67711036      -1.79106426      -1.12936564
H        4.01252216      -0.64100408      -1.34786134
H        1.40637537      -0.51014875      -2.70687371
H        2.91040777      -0.56139398      -3.36431749
H        2.56518728       1.42433108      -2.05256781
