13
Properties=species:S:1:pos:R:3 -1349.5373527670777=T 10.380347=T 10.39547=T -8.3195=T -6.376=T -9.199=T 1.2167=T -0.325=T 0.478=T 8.80691=T 0.10135=T 4.9980244432=T 6.2413808484=T 0.195529432=T pbc="F F F"
C        0.91163801      -0.08701805       0.22097982
C        2.22201661      -0.01144123      -0.03077259
C        3.02934562       1.24140571      -0.22295213
N        4.27349281       1.09117960       0.54219135
N        5.01210303      -0.03404672       0.19198266
C        4.33196366      -1.06357726      -0.15254719
O        2.95371838      -1.18023294      -0.20037127
H        0.32843528       0.82453096       0.32995551
H        0.41078351      -1.04889583       0.31572756
H        2.47213442       2.11249384       0.14353510
H        3.23266574       1.37399381      -1.30636397
H        4.88312690       1.90489084       0.46921675
H        4.82448602      -2.00207273      -0.39732159
