15
Properties=species:S:1:pos:R:3 -1634.4627886139615=T 15.091672=T 14.36654=T -8.3598=T -6.4566=T -8.092=T -0.1755=T -1.6359=T -0.217=T 7.57654=T 0.77506=T 3.9921880182=T 4.1976576174=T 0.532907359=T pbc="F F F"
C        1.53870075      -0.49700174       0.78955804
C        2.88562126      -0.31725755       0.13673159
C        3.47780520      -1.32506949      -0.54559475
C        3.56360849       0.96609118       0.24339461
C        3.08120562       2.05787716       0.89525884
C        3.76403242       3.29118593       0.98287470
C        4.32395867       4.36973519       1.07924170
H        0.80380542       0.21804039       0.38875424
H        1.59813970      -0.32722418       1.87570547
H        1.15458578      -1.51085624       0.62295912
H        3.00140753      -2.30110619      -0.64736980
H        4.45324654      -1.19259790      -1.01703945
H        4.53943763       1.04392621      -0.24485660
H        2.10752495       2.01007969       1.39266527
H        4.82190003       5.31403755       1.15984703
