13
Properties=species:S:1:pos:R:3 -1431.375442987267=T 11.316446=T 11.38473=T -9.6906=T -7.7354=T -9.821=T -0.9442=T -2.6571=T -1.222=T 9.06735=T 1.60638=T 3.8631309908=T 5.3644650662=T 0.481853165=T pbc="F F F"
C        1.03435727      -0.01770040       0.00399317
C        2.52246603      -0.02680218       0.00178921
N        3.23251698      -1.12171502      -0.00032718
C        4.59643508      -0.68497270      -0.00075027
N        5.62818535      -1.44670387      -0.00205446
C        4.64399015       0.79970765       0.00078258
C        3.36030765       1.21067961       0.00249536
H        0.64157092      -1.04006789      -0.00474560
H        0.65266729       0.52939202      -0.87238442
H        0.65602245       0.51203792       0.89254549
H        5.30330388      -2.42795760      -0.00270207
H        5.56097305       1.38251883       0.00051237
H        2.97724390       2.23016364       0.00393584
