17
Properties=species:S:1:pos:R:3 -1626.7105204019167=T 11.01677=T 11.73433=T -8.6984=T -6.7504=T -9.944=T 0.8387=T -0.0985=T 0.331=T 9.25219=T 0.2737=T 4.3451265658=T 5.6536748098=T 0.169120071=T pbc="F F F"
C        3.67491483      -0.56143788       1.94942893
C        2.77799681      -0.35434798       0.73063314
N        2.68142736       1.04217214       0.30967111
N        2.04403807       1.93144713       1.21676300
C        0.62908070       2.13019993       0.84703975
C        3.43362291       1.57403581      -0.69876853
O        3.51673061       2.77871419      -0.94205000
H        3.65420940      -1.61470835       2.26290964
H        3.32605756       0.05812194       2.78561878
H        4.71518302      -0.28787081       1.72337267
H        1.75949044      -0.72122453       0.93559206
H        3.15000415      -0.91922647      -0.13764523
H        2.53537163       2.82319688       1.06780138
H        0.07438852       1.19372811       0.99746738
H        0.49248655       2.46817743      -0.19397358
H        0.21007915       2.88123602       1.53021185
H        3.97570829       0.79089644      -1.27441237
