18
Properties=species:S:1:pos:R:3 -1789.48564084237=T 12.668118=T 13.91178=T -8.7311=T -6.6892=T -9.594=T 1.6596=T 0.0509=T 1.339=T 9.08539=T -0.77489=T 6.7192476896=T 0.442434987=T pbc="F F F"
C        1.08586413       0.44420578       0.22607133
C        2.40800511       0.53075732       0.04125943
C        3.29316315       1.55488174       0.68829306
N        4.06099079       2.29619550      -0.32236943
C        4.97237836       3.25911167       0.24536317
C        6.36689503       2.78214373       0.57778693
C        6.13729634       3.70054028      -0.60277489
H        0.48972580      -0.32882367      -0.26113117
H        0.55632185       1.14174507       0.88101862
H        2.91441846      -0.17249003      -0.62918433
H        4.02856614       1.04487232       1.33615848
H        2.68680068       2.21038480       1.34988678
H        3.41054467       2.76519930      -0.95924205
H        4.55210360       4.01615863       0.92609330
H        6.58646546       1.73790668       0.35363611
H        6.85386459       3.18501716       1.46604357
H        6.46330061       4.73814164      -0.52848049
H        6.21098522       3.25659207      -1.59560840
