17
Properties=species:S:1:pos:R:3 -1606.328657252492=T 11.036167=T 11.68836=T -8.8035=T -6.8668=T -9.978=T 0.7544=T -0.2929=T 0.931=T 9.27396=T -0.32543=T 4.9118541732=T 8.5762604032=T 0.153731604=T pbc="F F F"
C        2.25956473       0.87742422       2.05728875
C        3.06780283       0.21668754       0.94076009
N        3.65607319       1.15031659      -0.03452912
O        2.58918277       1.85662684      -0.69742835
C        4.68462035       2.03803867       0.38225627
C        5.76470779       1.38813884       1.21360604
N        4.79752270       3.26724650       0.03249962
H        1.83185236       0.11072098       2.71882811
H        1.43502999       1.46895177       1.63886807
H        2.88595258       1.54452016       2.66676041
H        2.43789098      -0.47943692       0.36767237
H        3.89945867      -0.37436462       1.34897771
H        2.67471524       1.54832390      -1.61883997
H        5.42289389       1.19054315       2.24042224
H        6.60890472       2.08368572       1.25837775
H        6.09742975       0.43605125       0.77701113
H        3.96186747       3.54344540      -0.50327114
