20
Properties=species:S:1:pos:R:3 -1894.9210348301738=T 11.676596=T 12.77356=T -9.2815=T -7.1338=T -10.551=T 0.7295=T -0.2637=T 2.807=T 9.99969=T -2.49382=T 8.5563482516=T 11.2779277418=T 0.091970594=T pbc="F F F"
C        3.16776487      -1.15961943      -0.21263242
C        2.67787202      -0.04907812       0.72294122
O        2.99867141      -0.34950578       2.08648461
C        3.16405908       1.36505319       0.30878739
C        2.48040738       2.45189202       1.14921637
C        4.69744866       1.50749159       0.33096383
N        5.25600180       1.25577857       1.68127874
H        2.87506308      -0.96815814      -1.25725270
H        2.72982990      -2.11709342       0.09976578
H        4.26186257      -1.26927095      -0.17197307
H        1.57300004      -0.03346619       0.67736401
H        3.92998837      -0.03640544       2.20199008
H        2.86270351       1.50971513      -0.74508044
H        2.66954263       2.30521561       2.22246948
H        1.38964386       2.41990335       1.01225441
H        2.82575050       3.45691702       0.86164896
H        4.96833416       2.50530874      -0.06665901
H        5.14456350       0.76623104      -0.34823225
H        5.07307113       2.05579433       2.29209763
H        6.27231154       1.16277687       1.62937739
