18
Properties=species:S:1:pos:R:3 -1752.0222345552056=T 11.696875=T 12.52624=T -9.5211=T -7.3396=T -9.416=T 0.8417=T -0.2041=T 1.188=T 8.79653=T -0.55811=T 6.4037281168=T 0.409261588=T pbc="F F F"
C        3.11742054      -1.45105762       1.34383294
C        3.01263514       0.04788271       1.47349314
C        2.59468691       0.62502868       2.61019380
C        3.39128746       0.84616854       0.23329666
N        3.17760914       2.30028669       0.26610745
C        4.87051034       0.64291135      -0.16918596
O        5.17125655       1.37407783      -1.34797099
H        4.16209383      -1.77850390       1.22619063
H        2.57345583      -1.80903428       0.45454461
H        2.70452725      -1.95642064       2.22626834
H        2.32700538       0.02350924       3.48071652
H        2.49560847       1.70675515       2.71466077
H        2.78684337       0.46270586      -0.61012591
H        3.59395020       2.69788023       1.11358103
H        2.18056910       2.52093653       0.29251560
H        5.08182917      -0.41589012      -0.37418205
H        5.51217941       0.96022143       0.68047882
H        4.64866191       2.20076231      -1.24541540
