14
Properties=species:S:1:pos:R:3 -1479.1276900430462=T 10.058022=T 11.38624=T -10.2983=T -8.1887=T -11.743=T 1.4137=T -0.3161=T 1.314=T 11.34034=T -0.90879=T 5.380124498=T 12.5530121644=T 0.223572944=T pbc="F F F"
C        0.96975709      -0.05681587       0.15848842
C        2.44574014       0.14089861      -0.08390003
C        3.22130915       1.14635879       0.79468286
C        4.13958336      -0.05447150       1.12795279
O        3.25727168      -0.97748660       0.43773507
C        5.48122725       0.00274896       0.53499380
N        6.54830507       0.06523422       0.06702744
H        0.60938237      -0.94857496      -0.37332050
H        0.40744440       0.81192667      -0.21564887
H        0.75961511      -0.18008331       1.23033780
H        2.65431243       0.26892786      -1.16049737
H        2.65671886       1.49937390       1.66632783
H        3.69523819       1.99116745       0.28389930
H        4.24049489      -0.31036420       2.19556147
