18
Properties=species:S:1:pos:R:3 -1733.0217407747455=T 11.243624=T 12.51453=T -8.9113=T -6.7314=T -10.234=T 0.8626=T -0.0811=T 2.926=T 9.50442=T -2.63999=T 8.1278154398=T 11.88901754=T 0.120030468=T pbc="F F F"
C        1.44820311      -0.09452411      -0.76828359
N        2.87136111       0.20361134      -0.91854711
C        3.49717869       0.62905471       0.33179037
C        4.97807075       0.91640162       0.13603365
C        5.79630519       1.10190305       1.43171401
O        6.52302865      -0.14067432       1.21124869
C        5.87663862      -0.31774655      -0.08703908
H        1.01674791      -0.33759879      -1.74897701
H        0.85541854       0.73118408      -0.32029776
H        1.32686941      -0.97858243      -0.12316276
H        2.98793490       0.94270117      -1.61709991
H        3.38426836      -0.19284013       1.06186537
H        3.00448511       1.52054953       0.78501655
H        5.11787682       1.71954452      -0.60434347
H        5.21813177       1.07843194       2.37202233
H        6.47413927       1.97281104       1.44301549
H        6.60384362      -0.23376525      -0.91199990
H        5.34536817      -1.28021140      -0.15994585
