15
Properties=species:S:1:pos:R:3 -1614.2873956195997=T 11.118262=T 11.67563=T -8.093=T -5.9788=T -8.439=T 0.884=T -0.0031=T 1.101=T 8.11289=T -0.59747=T 5.0136714764=T 6.715205746=T 0.387826914=T pbc="F F F"
C        0.99220476       0.00540932       0.10069512
C        2.48239277       0.00342775      -0.05665019
C        3.16656470       1.14648896      -0.20971948
O        4.54012418       1.25374021      -0.35846330
C        5.23105341       0.05995284      -0.34594041
C        4.67040284      -1.14608114      -0.20157534
C        3.18794697      -1.33303719      -0.03103178
H        0.57510529       1.02117220       0.07147503
H        0.69799124      -0.45861737       1.05738878
H        0.51122013      -0.58589546      -0.69680859
H        2.70275757       2.13260812      -0.23325535
H        6.29925859       0.23176014      -0.47067606
H        5.32776786      -2.01605152      -0.21028017
H        2.77777707      -1.99216516      -0.82277611
H        2.96180263      -1.86075168       0.91782786
