15
Properties=species:S:1:pos:R:3 -1572.113342016143=T 11.640521=T 13.38356=T -9.3542=T -7.1536=T -9.231=T 0.8456=T -0.0227=T 2.334=T 8.8002=T -1.88396=T 4.1493402732=T 10.147944135=T 0.433046421=T pbc="F F F"
C        0.96581573      -0.02059872       0.01639087
C        2.41839773       0.02324096      -0.02142206
C        3.63459638       0.04969212      -0.04864753
C        5.08209720       0.09470234      -0.08821741
C        5.82083318       1.12160252       0.81213111
C        6.61862435      -0.09137504       1.31533362
O        5.73953782      -1.02191055       0.61476563
H        0.54204730       0.99291951       0.07810134
H        0.61286857      -0.58357704       0.89322290
H        0.55596493      -0.50335558      -0.88311739
H        5.42818888       0.12646338      -1.13865770
H        5.16412141       1.56674011       1.56822850
H        6.37602545       1.90699073       0.28590381
H        7.65269786      -0.15291633       0.93424168
H        6.61692320      -0.27313842       2.40081261
