20
Properties=species:S:1:pos:R:3 -1884.1881756147727=T 11.864092=T 13.04138=T -9.0464=T -6.8511=T -10.428=T 0.9341=T 0.0103=T 3.017=T 9.74058=T -2.70814=T 8.4494971168=T 10.377194249=T 0.099872378=T pbc="F F F"
C        1.16073345      -0.21749764       0.36644539
O        2.52095110       0.07545717       0.65113273
C        2.90696071       1.42156746       0.30831541
C        2.41105109       2.43505880       1.33856378
C        4.43569891       1.41248399       0.12680262
C        5.19601613       1.03231419       1.40679509
N        4.73718711       0.55380179      -1.03208914
H        1.01628513      -1.28719350       0.56745723
H        0.91865743      -0.01403461      -0.69372097
H        0.46266688       0.35542178       1.00356538
H        2.47760768       1.66132937      -0.68483248
H        2.77583916       2.18759881       2.34492764
H        1.31345104       2.46310918       1.37109243
H        2.75700087       3.44621039       1.07854239
H        4.71347294       2.44381995      -0.15585559
H        4.89776553       0.03117850       1.74964595
H        5.01689536       1.74489238       2.22644335
H        6.27847817       1.02258051       1.21159564
H        4.40470573      -0.39172229      -0.81603015
H        5.75090559       0.48184375      -1.15036672
