15
Properties=species:S:1:pos:R:3 -1516.7459486942048=T 10.390187=T 10.95818=T -8.5088=T -6.549=T -9.637=T 0.7557=T -0.2223=T 1.033=T 8.87301=T -0.48178=T 5.3828397914=T 6.0920025156=T 0.207170418=T pbc="F F F"
N        1.16792563       0.02232210       0.54681821
C        2.32471903       0.02741919      -0.00500956
N        3.02518457      -1.15436166      -0.18328849
C        4.11642653      -1.30770479      -1.13785233
C        4.94878085      -0.03194238      -1.12918478
C        4.01606146       1.14555581      -1.34536256
O        2.97247509       1.19821490      -0.34264454
H        0.83221004       0.98428747       0.65621610
H        2.42609230      -1.96052296      -0.02423504
H        4.72233349      -2.17506465      -0.83722712
H        3.74598346      -1.50065124      -2.16501686
H        5.46814951       0.07557071      -0.16475393
H        5.70418749      -0.06112061      -1.92791141
H        4.53522930       2.10918576      -1.26177237
H        3.54433126       1.09025235      -2.34358532
