14
Properties=species:S:1:pos:R:3 -1453.489897538058=T 10.436793=T 10.74568=T -9.3693=T -7.3472=T -9.679=T 0.1823=T -1.5401=T -0.718=T 9.51968=T 1.33211=T 3.460201288=T 5.0194740212=T 0.476637778=T pbc="F F F"
C        0.93599448      -0.16600027      -0.08116681
C        2.40849025       0.06228078      -0.11681867
C        3.08189746       1.23097407       0.00684298
C        2.49221086       2.59439978       0.21454169
C        4.55463377       1.14542880      -0.07358766
O        5.31375998       2.10246046       0.00822344
H        0.67712704      -0.87335483       0.72379384
H        0.59873249      -0.63803490      -1.01850019
H        0.35764882       0.75318966       0.06943056
H        3.02136401      -0.83657201      -0.26360425
H        1.39674478       2.58835653       0.20388800
H        2.85287620       3.28377038      -0.56249586
H        2.83355429       3.01339606       1.17287959
H        4.95143558       0.10659549      -0.22251665
