10
Properties=species:S:1:pos:R:3 -1086.5583565695053=T 8.299812=T 8.90471=T -9.9038=T -7.6268=T -10.236=T 0.6095=T -1.4435=T -0.319=T 9.91088=T 0.96712=T 3.6294917724=T 10.7939359922=T 0.417774777=T pbc="F F F"
O        1.06267160      -0.13683035       0.39017095
C        2.42943559      -0.00581669      -0.01831751
C        2.64921673      -0.71464585      -1.38298703
O        3.60700601      -0.55727280      -2.10273346
C        2.90773834       1.36822686      -0.01910617
C        3.24281712       2.53335666      -0.05712934
H        0.57733343       0.62812155       0.03026441
H        3.01553095      -0.60231771       0.70767482
H        1.81684464      -1.42778230      -1.61533807
H        3.54976557       3.55933062      -0.08259860
