15
Properties=species:S:1:pos:R:3 -1553.724324677484=T 11.389051=T 12.05714=T -9.4013=T -7.3443=T -10.095=T 0.0412=T -1.7141=T -0.738=T 9.45423=T 1.33645=T 3.452638142=T 5.3585881298=T 0.602554038=T pbc="F F F"
O        2.57239847      -0.86018392      -1.05707510
C        2.18983417      -0.05620959       0.06574212
C        2.92983741       1.28021974      -0.03758937
C        4.41336750       1.13584468       0.06427642
C        5.20907461       1.79494026       0.92940904
C        6.65727542       1.56643713       0.94474304
O        7.44284094       2.12127479       1.70299121
H        2.16509513      -1.73645634      -0.95660209
H        2.44938930      -0.55429834       1.01781418
H        1.10139339       0.13612700       0.06288884
H        2.55075745       1.96427188       0.73648656
H        2.67819713       1.71852966      -1.01999904
H        4.87308433       0.42187960      -0.62968180
H        4.81521848       2.51866178       1.64985321
H        7.01734628       0.81931167       0.18855278
