15
Properties=species:S:1:pos:R:3 -1552.4724463619602=T 10.622465=T 11.26472=T -9.7686=T -7.6011=T -9.873=T 0.362=T -1.4862=T -0.363=T 9.37626=T 1.02782=T 3.707429372=T 6.6999058736=T 0.233880796=T pbc="F F F"
C        0.91326721       0.18820953      -0.01631119
C        2.45628925       0.16684959      -0.04971358
O        2.95454928      -0.64110150       0.99702776
C        2.95059507      -0.28950098      -1.41447398
C        3.82260911      -1.28516719      -1.59548488
C        2.96739056       1.59633752       0.14183033
O        3.68893776       1.89977685       1.07561364
H        0.49833109       0.80118387      -0.82902556
H        0.56085668       0.57947570       0.94742041
H        0.54975948      -0.84083096      -0.13467491
H        3.51733634      -0.04057145       1.53668933
H        2.53386012       0.24884396      -2.27210177
H        4.22779580      -1.82919094      -0.74139204
H        4.13403896      -1.58321412      -2.59691005
H        2.64587328       2.34619012      -0.61893352
