12
Properties=species:S:1:pos:R:3 -1305.221971795712=T 10.295476=T 10.31809=T -9.3449=T -7.4702=T -10.305=T -0.7676=T -2.4462=T -0.954=T 9.2463=T 1.67931=T 3.2909975938=T 5.363882332=T 0.769183211=T pbc="F F F"
C        2.20337846      -1.43056546       0.47639703
C        3.41573587      -0.86833848       0.36591745
C        3.58743598       0.61406861       0.28317058
O        2.62870031       1.38697236       0.31215669
C        4.99605369       1.09954128       0.16480702
C        5.28525892       2.40653352       0.08598868
H        2.07353907      -2.51116481       0.53684794
H        1.31429972      -0.79664550       0.50707816
H        4.31816539      -1.48543994       0.33333845
H        5.79066390       0.34826256       0.14425277
H        4.47716718       3.14122939       0.10813687
H        6.31109151       2.76477646      -0.00068163
