13
Properties=species:S:1:pos:R:3 -1332.8666611205829=T 12.131564=T 12.4117=T -9.3326=T -7.569=T -9.315=T 0.0013=T -1.6838=T -1.059=T 8.6111=T 1.76117=T 3.4824071806=T 9.85812686=T 0.428938079=T pbc="F F F"
C        0.83180500      -0.20718702      -0.09119439
C        2.34101714       0.00734561       0.10122998
C        2.76444767       1.44330516      -0.00760323
C        3.28382604       2.24510826       0.99261433
N        3.57218409       3.52691894       0.61741722
N        3.32616482       3.82013543      -0.60075497
S        2.66096286       2.39630154      -1.43404990
H        0.57972226      -1.27008006       0.02463990
H        0.51005252       0.11257323      -1.09201807
H        0.25561703       0.36651577       0.64766689
H        2.89579397      -0.59239857      -0.63763759
H        2.64716589      -0.36031411       1.09250381
H        3.47317069       1.93276582       2.01873602
