15
Properties=species:S:1:pos:R:3 -1513.4103550979685=T 9.53496=T 10.22709=T -9.2305=T -7.0635=T -10.638=T 0.9354=T 0.0071=T 3.099=T 10.06376=T -2.87096=T 8.5223884862=T 12.9453038684=T 0.140568332=T pbc="F F F"
C        0.74621752       1.30419754       0.31940512
C       -0.73063154       1.19283234      -0.12801058
C       -1.01985290      -0.29947488      -0.14188437
N       -0.61059520      -1.10909112       1.02652834
C        0.28084691      -1.03360639      -0.15157555
C        1.40906371      -0.01479531      -0.14379855
H        1.24367091       2.19114483      -0.09603060
H        0.80910210       1.40132350       1.41387535
H       -0.86081553       1.58587971      -1.15065124
H       -1.41262886       1.75959275       0.52576952
H       -1.90445578      -0.66895832      -0.66642312
H       -0.26225987      -0.50188014       1.77740822
H        0.41570923      -1.97845064      -0.68367791
H        2.25352540      -0.30970545       0.49879523
H        1.80157391       0.08328157      -1.16994987
