21
Properties=species:S:1:pos:R:3 -2067.0085722652443=T 12.871363=T 14.5744=T -9.7192=T -7.5345=T -10.881=T 0.9325=T 0.0565=T 2.962=T 10.51207=T -2.6177=T 8.784222121=T 10.7351914254=T 0.202327988=T pbc="F F F"
C        0.94365402       2.82315437      -0.57045467
C        2.41453875       2.88040661      -0.15262672
C        3.13320497       1.53584640      -0.32378941
C        4.61263333       1.54927898       0.03978207
C        4.93341929       1.82840885       1.49703397
C        5.51382145       0.57862341      -0.69261097
C        5.58366133       2.05987547      -1.00410828
H        0.44898636       3.79592180      -0.43662282
H        0.38882358       2.08241217       0.02614848
H        0.84005311       2.53852199      -1.62899144
H        2.48032788       3.20695895       0.89831298
H        2.94105262       3.64745505      -0.74594955
H        3.02862187       1.20857066      -1.37320005
H        2.62079488       0.76891349       0.28653084
H        6.01569205       1.76682902       1.68087459
H        4.43989351       1.09546498       2.15565978
H        4.60340085       2.83276225       1.80322051
H        5.06260475      -0.07852448      -1.43820282
H        6.34305399       0.13311194      -0.14035491
H        6.46104044       2.61293711      -0.66452230
H        5.17968098       2.39807098      -1.96012928
