20
Properties=species:S:1:pos:R:3 -1932.5387025104073=T 12.637974=T 14.3057=T -8.7446=T -6.7722=T -10.404=T 0.9809=T 0.0949=T 3.28=T 9.69069=T -2.98689=T 8.49986023=T 11.7579891352=T 0.114309815=T pbc="F F F"
C        0.88717056      -0.14661398      -0.38822293
C        2.41282320      -0.18526606      -0.48653460
C        3.09134789       0.67153133       0.58132014
N        4.55075036       0.58592926       0.49014853
C        5.18358040       1.56644876      -0.40559909
C        5.29936708       1.70294816       1.07805305
C        6.56616962       1.37932121       1.82997316
H        0.42167457      -0.77157019      -1.16330913
H        0.50190656       0.87748947      -0.51137932
H        0.53973491      -0.51598388       0.58904184
H        2.73393088       0.16339100      -1.48246814
H        2.77754581      -1.21998840      -0.38761502
H        2.79990530       0.31447613       1.58433601
H        2.73551877       1.72334876       0.49627259
H        4.53110763       2.27568280      -0.92800156
H        6.03167468       1.19717412      -0.98864287
H        4.68789668       2.50585221       1.51256642
H        7.11164583       0.56698994       1.33100503
H        6.34319545       1.05720652       2.85842324
H        7.22433383       2.25963284       1.88511264
