15
Properties=species:S:1:pos:R:3 -1504.4543094812539=T 10.463912=T 11.5067=T -9.4254=T -7.3225=T -10.511=T 0.7814=T -0.1972=T 0.341=T 9.95405=T 0.23383=T 4.3225983096=T 6.196262343=T 0.209760172=T pbc="F F F"
N        0.89922813       0.02101712      -0.27972519
C        2.29392398      -0.22336468      -0.00048825
C        3.10867696      -0.87125508      -1.09017864
C        3.30006624       0.59707789      -0.78785401
N        4.52230138       1.01070616      -0.15528511
C        4.58610059       1.91330849       0.87326601
O        5.62098283       2.37694769       1.33609922
H        0.52060038       0.72725670       0.35578329
H        0.35405113      -0.83287632      -0.14131480
H        2.60920897      -0.46797655       1.02213144
H        2.59471829      -1.11538410      -2.01937799
H        3.90200889      -1.55465269      -0.78699203
H        2.86179665       1.29113812      -1.51126475
H        5.41108522       0.78648243      -0.60287530
H        3.57267037       2.17167481       1.26135610
