17
Properties=species:S:1:pos:R:3 -1650.0150564657215=T 11.18336=T 12.08802=T -8.6655=T -6.5786=T -9.766=T 0.9686=T 0.047=T 2.861=T 9.41986=T -2.51474=T 7.6425838302=T 9.2344028884=T 0.109641925=T pbc="F F F"
C       -1.67703231       0.62986815       0.19614486
N       -1.65454764      -0.80635672      -0.31942704
C       -0.17157802      -0.77424376       0.05094560
C        1.17374882      -1.15010825      -0.54583525
N        2.03661623      -0.04832983       0.02660239
C        1.17725152       1.08941717       0.55834174
C       -0.15242628       0.73029028      -0.08538071
H       -2.35094547       1.31006545      -0.34177821
H       -1.93299549       0.61880622       1.26649108
H       -1.71936292      -0.74693873      -1.34551774
H       -0.15163513      -1.04666708       1.12333000
H        1.57583072      -2.12920025      -0.24831780
H        1.16935633      -1.09611499      -1.64837574
H        2.59616348      -0.42877362       0.78933733
H        1.11825864       1.08208302       1.66015186
H        1.60234338       2.05118285       0.23485590
H       -0.06832585       0.95288008      -1.16574826
