13
Properties=species:S:1:pos:R:3 -1402.6621615641461=T 9.99669=T 10.20404=T -8.4427=T -6.4011=T -8.94=T 0.7806=T -0.2049=T 0.412=T 8.48835=T 0.11008=T 4.7859711874=T 11.8800409536=T 0.287340609=T pbc="F F F"
O        0.88917555      -0.03569899       0.00865039
C        2.11873098      -0.01667671      -0.00414499
N        2.86996939       1.12060339       0.18812877
C        4.30598894       1.25363321      -0.08728401
C        4.98125019      -0.07952786       0.06524761
C        4.25918399      -1.20911640       0.00675147
N        2.87460752      -1.18259103      -0.17249473
H        2.30448200       1.96411889       0.21427084
H        4.72745234       1.98368565       0.62329329
H        4.47943435       1.66458967      -1.10414387
H        6.06007032      -0.11786898       0.19619964
H        4.70378831      -2.20064044       0.08770204
H        2.32991612      -2.03802042      -0.13827645
