13
Properties=species:S:1:pos:R:3 -1346.3039009246734=T 11.015274=T 10.5212=T -7.6196=T -5.7162=T -8.539=T 0.8009=T -0.7676=T -0.13=T 7.94791=T 0.71596=T 4.4527960082=T 0.335697974=T pbc="F F F"
O        1.00850616       0.05546320      -0.38590788
N        2.37506590      -0.04587632       0.02814767
C        2.89814562       1.13402423       0.12132335
C        4.35470549       1.30202453       0.53982415
N        4.60850983       2.73448247       0.28343832
C        3.39228124       3.34505998       0.02303143
C        2.36796544       2.45932015      -0.12848834
H        0.75346384      -0.88251847      -0.42050747
H        5.03378028       0.66436217      -0.04304833
H        4.48649662       1.06582436       1.60874025
H        5.26856820       3.21479876       0.88932991
H        3.35823157       4.42891177      -0.08270183
H        1.35299983       2.68356317      -0.43484124
