22
Properties=species:S:1:pos:R:3 -2084.7558413433417=T 13.138366=T 14.86478=T -9.2552=T -6.9128=T -10.624=T 0.9208=T -0.0131=T 3.008=T 9.98393=T -2.73853=T 8.764198382=T 11.189054577=T 0.121174883=T pbc="F F F"
C        3.15075870      -1.28665380       1.75748973
C        2.73193240      -0.85516911       0.34589403
C        1.21410066      -0.98936078       0.17068760
C        3.18865839       0.57603695       0.00901278
C        4.70512755       0.78633908      -0.03020890
C        5.09636153       2.19948691      -0.46169955
N        6.56024902       2.34300664      -0.52056889
H        4.24186810      -1.27386197       1.88831083
H        2.80351872      -2.30735507       1.97661203
H        2.71217644      -0.61581104       2.51508086
H        3.21781086      -1.53784572      -0.37681617
H        0.67863469      -0.32405164       0.86786482
H        0.87781736      -2.01809639       0.36918338
H        0.90217272      -0.72318000      -0.85057259
H        2.73587081       1.27353377       0.73901067
H        2.76841226       0.85224153      -0.97479585
H        5.17241645       0.06667488      -0.72359166
H        5.14143597       0.58803516       0.96465707
H        4.59909685       2.93063610       0.21024091
H        4.70386446       2.38920545      -1.47512975
H        6.95193737       2.25999818       0.42202586
H        6.80566869       3.28137088      -0.84478720
