16
Properties=species:S:1:pos:R:3 -1643.6177357315994=T 11.292619=T 11.98835=T -9.3873=T -7.4604=T -9.952=T 0.5578=T -1.077=T -0.228=T 9.55542=T 0.72738=T 4.1253117864=T 5.557300492=T 0.2798982=T pbc="F F F"
C        3.23373064      -0.41572670       1.37229072
C        2.83130211       0.17294431       0.01131363
C        2.86454629       1.67895210      -0.01439142
C        1.76690969       2.44162426      -0.15683441
C        4.24299852       2.29353322       0.03973947
N        4.32996105       3.53366650       0.63010067
O        5.22330071       1.72878961      -0.44747880
H        3.21035949      -1.51408198       1.33918489
H        2.54857463      -0.08477521       2.16665151
H        4.25390100      -0.11224963       1.64712951
H        1.82295559      -0.16779659      -0.26702054
H        3.53293402      -0.19038326      -0.75623814
H        0.77744201       1.98898370      -0.25130981
H        1.82062286       3.52908388      -0.23035531
H        3.59865032       3.85385270       1.25537909
H        5.26402106       3.91322309       0.75350892
