17
Properties=species:S:1:pos:R:3 -1658.8835543961432=T 11.159126=T 12.31881=T -8.7093=T -6.5604=T -10.206=T 0.9277=T 0.0004=T 3.019=T 9.50283=T -2.64375=T 8.2585090824=T 11.2231631256=T 0.122011201=T pbc="F F F"
C        0.65213267       0.92609100      -0.47045038
N       -0.46883758       0.21191828       0.18056077
C        0.79955461      -0.49916958      -0.06586607
C        1.61086916      -0.91982317       1.13700990
C        1.41843638      -0.17437935       2.48242305
C        1.40493311      -1.57457384       3.13896053
N        1.14258845      -2.17542638       1.80044264
H        0.59414845       1.15534995      -1.53772000
H        1.10083485       1.71121137       0.14472598
H       -1.16409794      -0.06586417      -0.51774554
H        0.81075024      -1.23035339      -0.88295124
H        2.68072258      -0.95587435       0.84659179
H        0.43818551       0.31718774       2.51732319
H        2.20929173       0.51898722       2.79116142
H        2.38831194      -1.83920113       3.56883399
H        0.62239497      -1.77938800       3.88562755
H        1.70488087      -3.00309220       1.58876243
