18
Properties=species:S:1:pos:R:3 -1766.7263315575938=T 11.045331=T 12.05491=T -9.3731=T -7.1374=T -10.702=T 0.7977=T -0.195=T 2.952=T 10.03271=T -2.65598=T 8.5787649204=T 10.620764746=T 0.086325911=T pbc="F F F"
N        1.04272307      -0.00049315      -0.14219640
C        2.49925676      -0.05630974       0.02912547
C        3.03920575       1.13312002       0.83951294
C        4.40320022       0.65431750       1.38286980
C        4.37941002      -0.90393611       1.32196763
O        5.38220211      -1.44152844       0.43909801
C        2.94456019      -1.25144326       0.88222932
H        0.72343267      -0.81359267      -0.67576748
H        0.78864223       0.81911657      -0.70068094
H        3.04196288      -0.09291756      -0.94356916
H        2.33066338       1.32052328       1.66251247
H        3.11288232       2.05827970       0.24866063
H        5.24294419       1.01164595       0.76769060
H        4.58917105       1.01954117       2.40266908
H        4.62296025      -1.35556744       2.29338098
H        5.23157724      -1.05797609      -0.44358098
H        2.90746730      -2.22217805       0.36727399
H        2.27741838      -1.30275167       1.75941404
