12
Properties=species:S:1:pos:R:3 -1306.3796690125482=T 9.411883=T 9.78663=T -8.1797=T -6.1861=T -8.423=T 0.6812=T -0.3469=T 0.313=T 7.91247=T 0.16606=T 4.512904421=T 6.3400365086=T 0.342290807=T pbc="F F F"
N        0.90351521      -0.22770242      -0.01636060
C        2.32083766      -0.05507107       0.02526910
C        3.14003943       1.03789188       0.14505729
O        4.44857301       0.65064349       0.12200805
C        4.47692858      -0.72726334      -0.01543089
C        3.19275876      -1.19376125      -0.07921619
O        2.74692744      -2.47067736      -0.21739390
H        0.47229428       0.29824276      -0.77828835
H        0.45410978       0.05473784       0.85670703
H        2.95859868       2.10250156       0.24904556
H        5.45560022      -1.18781928      -0.05083555
H        1.76734697      -2.38672282      -0.23574155
