15
Properties=species:S:1:pos:R:3 -1422.4722462777538=T 10.277573=T 10.93682=T -9.4329=T -7.3219=T -10.807=T 1.458=T -0.4641=T 0.344=T 10.37691=T 0.1639=T 5.3261409936=T 6.5907733964=T 0.430318836=T pbc="F F F"
C        0.84650680      -0.00669102       0.43511859
C        2.35297263      -0.05954649       0.17316590
C        2.98423008       1.32142992       0.23007015
O        4.39546256       1.16620606      -0.03217513
N        5.01637551       2.42244313       0.02579614
C        6.27533224       2.33157177      -0.19758467
H        0.40622159      -1.01208819       0.39119957
H        0.33002271       0.61573903      -0.31096722
H        0.62519444       0.41045352       1.42901666
H        2.55108317      -0.50234905      -0.81586764
H        2.84520751      -0.70817402       0.91508912
H        2.84934462       1.78352370       1.22268328
H        2.54685590       1.99400152      -0.52729628
H        6.83490387       3.26656045      -0.17107429
H        6.78202636       1.38199968      -0.40618419
