14
Properties=species:S:1:pos:R:3 -1444.5565060555034=T 9.655766=T 10.62649=T -9.8975=T -7.7043=T -11.012=T 0.6407=T -0.4398=T 0.047=T 10.19194=T 0.55442=T 4.3033928782=T 11.43956829=T 0.174731976=T pbc="F F F"
N        0.96440724       0.01822972      -0.35808302
C        2.34412167       0.02129550       0.05580827
C        3.30009204      -0.82918636      -0.72344367
C        3.33539670       0.67836208      -0.90747943
C        4.41384501       1.57401978      -0.39406071
O        5.20772681       1.09356978       0.62273715
O        4.59486490       2.69909595      -0.80875546
H        0.49500342       0.87496119      -0.05636179
H        0.46596889      -0.76834446       0.06474778
H        2.58396851       0.16029347       1.11934905
H        2.89183125      -1.39499623      -1.56086361
H        4.11596958      -1.32988464      -0.19708410
H        2.88326351       1.05727150      -1.82301423
H        5.00140045       0.15360271       0.78453377
