11
Properties=species:S:1:pos:R:3 -1157.0747080698902=T 8.696286=T 8.58514=T -9.0341=T -6.9513=T -9.322=T 0.043=T -1.7093=T -0.412=T 8.85488=T 0.90511=T 4.5053288764=T 6.8681052812=T 0.347725572=T pbc="F F F"
C        0.26503470      -1.34487223       0.08199207
O       -0.93685654      -0.81901781      -0.54662021
N       -1.28900351       0.48020542      -0.15782371
C       -0.29932487       1.25726359       0.17504566
C        1.10020201       0.90806494       0.00312815
C        1.40722439      -0.39643737      -0.11959680
H        0.41699163      -2.31883449      -0.39967485
H        0.05246805      -1.50594462       1.15877304
H       -0.60932366       2.26506243       0.45982580
H        1.83450035       1.70640018      -0.10985303
H        2.40949745      -0.75886004      -0.35125611
