14
Properties=species:S:1:pos:R:3 -1444.039546692177=T 9.414932=T 10.33079=T -9.2456=T -7.1859=T -10.714=T 0.8702=T -0.1401=T 0.511=T 9.72322=T 0.14032=T 4.4001267554=T 6.794494793=T 0.144337812=T pbc="F F F"
N        1.30151828       0.08089640       0.92475236
C        1.97472672       0.31793421      -0.23438388
O        1.67157674      -0.13535386      -1.33691784
C        3.17564951       1.24681935      -0.07968855
C        2.98330539       2.69491649      -0.58602519
C        3.33749755       3.10666338       0.85453010
O        3.41946010       1.70965336       1.28641181
H        1.66579576       0.46767816       1.79195897
H        0.52005821      -0.56585978       0.92271971
H        4.05573478       0.72813745      -0.49423813
H        1.95878781       2.92468805      -0.90084618
H        3.68479487       3.01402006      -1.36422812
H        4.30865873       3.61214436       0.97475126
H        2.56486556       3.65645238       1.41364369
