17
Properties=species:S:1:pos:R:3 -1615.9576836670205=T 10.878306=T 11.95818=T -9.1128=T -6.8853=T -10.353=T 0.7815=T -0.1896=T 2.829=T 9.86001=T -2.54584=T 8.1794928046=T 9.6489500794=T 0.074363385=T pbc="F F F"
N        2.38578100      -0.61288251      -1.42491739
C        2.40220397      -0.03241282      -0.07795861
C        3.28642044       1.19605201       0.00036758
O        2.72801818       2.38858773      -0.63078555
C        3.11011477       3.20011807       0.51535191
C        3.39728001       1.94560023       1.36033647
N        4.59810867       1.95841668       2.17177846
H        1.69505521      -1.36417037      -1.47803589
H        3.29311755      -1.03486250      -1.63846666
H        2.74830930      -0.72586862       0.72185973
H        1.37491904       0.27103865       0.17910400
H        4.29042905       0.97432348      -0.42250033
H        4.02140028       3.79375828       0.31142662
H        2.30049704       3.87180554       0.83849842
H        2.54284473       1.69606657       2.00902474
H        5.43122523       2.04729632       1.58413208
H        4.69474553       1.09359327       2.70719444
