12
Properties=species:S:1:pos:R:3 -1277.159994461662=T 12.343239=T 11.94974=T -9.7551=T -7.8463=T -9.864=T -0.8986=T -2.6099=T -1.005=T 9.48338=T 1.55178=T 4.1346355336=T 4.9314687584=T 0.651090009=T pbc="F F F"
C        0.84640100       0.16149647      -0.02120575
C        2.32251716       0.03843618      -0.11063998
N        3.09729291       0.93972450       0.39496398
N        4.44763016       0.61216095       0.19004629
C        5.22340876       1.51433768       0.69604793
C        6.63946892       1.36961242       0.59478811
N        7.80689937       1.32056772       0.55149494
H        0.42524016      -0.71388431       0.49814874
H        0.40558418       0.16017104      -1.03070384
H        0.55580492       1.07706128       0.50596614
H        2.76055869      -0.83656548      -0.61643727
H        4.83351378       2.40391153       1.20970071
