12
Properties=species:S:1:pos:R:3 -1204.9210187277013=T 10.123779=T 10.97673=T -9.1593=T -7.0964=T -9.96=T 1.2754=T -0.4007=T -0.072=T 9.50215=T 0.61579=T 5.0760240358=T 6.0520542264=T 0.08294347=T pbc="F F F"
O        1.11045296      -0.08009167       0.68625424
S        2.48449476       0.02379678       0.19918965
O        3.58515583       0.28923448       1.13236779
C        2.92376450      -1.34767891      -0.93575892
C        3.59456540      -0.65739779      -2.08004089
C        3.38438937       0.67179548      -2.10126074
N        2.53616658       1.19632258      -1.10666460
H        1.97114716      -1.83598782      -1.18973943
H        3.56213287      -2.03998201      -0.37056389
H        4.19971979      -1.18802806      -2.80949364
H        3.78668174       1.36891765      -2.83485084
H        2.79386904       2.11908929      -0.74536872
