14
Properties=species:S:1:pos:R:3 -1474.3281460135786=T 9.7264=T 10.57349=T -8.704=T -6.637=T -10.392=T 1.1942=T -0.6282=T 0.338=T 9.61273=T 0.39652=T 3.8446570768=T 12.711788636=T 0.186244426=T pbc="F F F"
O        1.07299456       0.00361253       0.08621259
C        2.28484081       0.05026831       0.03145944
C        3.31961707      -1.09837629       0.05313255
N        4.60484012      -0.33883129      -0.04365745
C        4.22414587       0.67814038      -1.11589283
C        3.21586040       1.25242890      -0.07740342
C        4.30924030       0.79597335       0.93311279
H        3.19683009      -1.78279276      -0.79830362
H        3.27108859      -1.68241946       0.98312209
H        3.84202849       0.25119117      -2.05446297
H        5.07126531       1.34897263      -1.31271641
H        2.75538159       2.24571494      -0.11542285
H        5.16658239       1.48080808       0.98117015
H        4.00797440       0.48095950       1.94265996
