12
Properties=species:S:1:pos:R:3 -1312.0757823737056=T 10.030479=T 10.9728=T -10.8242=T -8.3381=T -10.272=T 1.2168=T -0.5918=T 1.179=T 9.89887=T -0.8224=T 4.3898235188=T 10.6593491892=T 0.429361741=T pbc="F F F"
C        0.95795406      -0.03216509       0.02790825
C        2.17128729      -0.02027762       0.00990598
C        3.63152165       0.02426407      -0.00641614
O        4.19163398       0.81175680       1.06237210
C        3.84087962       2.18795840       0.99460257
C        4.43792837       2.87200074      -0.16632585
N        4.91025545       3.38792126      -1.09955823
H       -0.11309057      -0.05695650       0.04185752
H        3.98566759       0.39791843      -0.98512753
H        4.04764010      -0.98245575       0.14079256
H        4.22166662       2.64840568       1.91678003
H        2.74510583       2.32809957       0.95940873
