21
Properties=species:S:1:pos:R:3 -2065.677151954105=T 12.843206=T 14.51647=T -9.9776=T -7.7714=T -11.297=T 0.9704=T 0.1044=T 3.005=T 10.95316=T -2.7008=T 9.3285082624=T 11.7321380542=T 0.236125126=T pbc="F F F"
C        1.25039348      -0.50477640      -0.25748648
C        2.78117877      -0.42646059      -0.30246492
C        3.30225713      -0.75479083      -1.70701080
C        3.26432954       0.94755366       0.20225121
C        4.76502775       1.08308874       0.36771169
C        5.63432578       1.63385856      -0.74103847
C        5.38943121       2.45245945       0.50584850
H        0.86643208      -0.31048621       0.75540088
H        0.89163813      -1.49666767      -0.57057609
H        0.80061294       0.24015007      -0.93433435
H        3.17889364      -1.18979446       0.39321200
H        2.93616959      -0.01732602      -2.44065881
H        2.95488539      -1.74688182      -2.03257848
H        4.40002376      -0.74952194      -1.74585459
H        2.78077028       1.14891312       1.17498924
H        2.90260231       1.73368504      -0.48698174
H        5.22357256       0.29808391       0.97808670
H        5.13850204       1.95144971      -1.65993093
H        6.62600618       1.20430564      -0.88899106
H        6.21232227       2.58105021       1.20967690
H        4.72723517       3.31634784       0.42252959
