17
Properties=species:S:1:pos:R:3 -1679.2603641000944=T 10.522752=T 11.78763=T -9.8103=T -7.5923=T -11.562=T 0.8857=T -0.1151=T 2.779=T 11.21801=T -2.54641=T 9.4087891974=T 13.6487012436=T 0.203045279=T pbc="F F F"
O        2.08754035      -0.43903823      -1.33643957
C        2.27953874       0.02265022       0.00860670
C        3.16216312       1.25146668      -0.02917542
C        2.55875341       2.56367815      -0.61054332
C        3.08588792       3.34699163       0.62588035
O        4.21251679       4.19164141       0.39535610
C        3.39062923       1.98711985       1.32355501
H        1.50591632      -1.21703712      -1.30837549
H        2.75675598      -0.75927806       0.63118656
H        1.30977159       0.28341845       0.47837236
H        4.11041734       0.98412511      -0.52205882
H        1.45971807       2.53310137      -0.65970999
H        2.93684692       2.90763820      -1.58320407
H        2.35712564       3.99133008       1.13655405
H        4.87235386       3.68473114      -0.11166560
H        4.38482045       1.90659022       1.78519484
H        2.63298431       1.72772086       2.07976630
