19
Properties=species:S:1:pos:R:3 -1807.8063690886415=T 12.634696=T 13.44025=T -8.7887=T -6.6454=T -9.395=T 0.8738=T -0.0948=T 1.381=T 8.91814=T -0.80432=T 6.6036431432=T 0.444540623=T pbc="F F F"
C        2.81645261      -0.68454884       1.55323780
N        2.68633598      -0.18623004       0.18365348
C        3.03155647       1.22898862       0.03115910
C        4.56506135       1.42515483      -0.10351309
N        5.15852347       0.65469393      -1.19829951
C        4.89440754       2.89080493      -0.18404289
C        5.74588531       3.45394284      -1.04900201
H        2.44080783      -1.71555949       1.60440559
H        2.27299709      -0.07374770       2.30477068
H        3.87576781      -0.71071375       1.84895882
H        1.73181828      -0.33853750      -0.14161051
H        2.65497084       1.84868684       0.87549398
H        2.55686669       1.60345673      -0.89061214
H        5.01947579       1.04898087       0.83557247
H        4.83941802       1.05506407      -2.08810190
H        4.74585532      -0.28366642      -1.15526901
H        4.37209323       3.52275876       0.54312960
H        6.30561860       2.85195138      -1.76683409
H        5.92527776       4.52973995      -1.04263639
