14
Properties=species:S:1:pos:R:3 -1333.9672654208962=T 10.487036=T 11.98084=T -10.4055=T -8.4224=T -10.71=T 0.8308=T -0.1836=T 0.117=T 10.3669=T 0.34357=T 5.6438055242=T 11.3784307934=T 0.207833662=T pbc="F F F"
N        3.59903729      -1.02931640      -0.48045860
S        2.62040334       0.18838082       0.18892768
O        1.51843922       0.47091808      -0.74109237
O        2.38904089      -0.18799490       1.58715865
C        3.72161488       1.58673257       0.16861441
C        3.82918589       2.42649328      -1.07725967
C        3.09564329       2.95862886       0.12669864
H        3.56691022      -1.83328638       0.15135039
H        3.22967151      -1.28268697      -1.39998706
H        4.59976284       1.40963441       0.78934076
H        3.22010719       2.12965468      -1.93097441
H        4.81695727       2.82059600      -1.31532329
H        3.56496502       3.72593351       0.74156281
H        2.00872114       3.00667244       0.06213207
