14
Properties=species:S:1:pos:R:3 -1393.2428973938272=T 8.498156=T 9.2603=T -9.5588=T -7.2859=T -11.51=T 0.8816=T -0.1441=T 2.865=T 10.8288=T -2.5813=T 9.1416985562=T 14.5126108944=T 0.112298726=T pbc="F F F"
O        1.17661730       0.03021637       0.92322274
C        2.29996689      -0.00315253       0.02590294
C        3.19393383       1.18738379       0.38269934
C        4.04622412       0.60647559       1.50931880
O        4.32274451      -0.74724658       1.10379367
C        3.23540365      -1.20188174       0.27858162
H        0.67231005      -0.79290858       0.80390169
H        1.95327230       0.02738080      -1.02235420
H        2.59472127       2.05810129       0.67810557
H        3.82393942       1.45538696      -0.47824570
H        5.01155841       1.11272475       1.64719863
H        3.49188027       0.61840572       2.46576124
H        3.65661715      -1.59602799      -0.66176028
H        2.69027082      -2.01793784       0.78777394
