17
Properties=species:S:1:pos:R:3 -1734.1016221133304=T 13.459608=T 13.46783=T -7.8283=T -5.8883=T -8.073=T 1.0561=T -0.4126=T 0.323=T 7.56653=T 0.27124=T 4.7879549634=T 0.722709922=T pbc="F F F"
C        2.79759853      -0.12270697      -0.24220085
O        1.95854215       1.02001954      -0.06469387
C        2.55203176       2.25695010      -0.03254813
C        1.49749441       3.30110024       0.16924828
C        3.88966045       2.46278545      -0.16666108
C        4.55539107       3.74711522      -0.13564832
C        5.88561033       3.92262388      -0.28158914
H        2.12622704      -0.98854442      -0.23326944
H        3.52742502      -0.21222516       0.57853080
H        3.33180157      -0.07959768      -1.20501547
H        0.96777281       3.12441201       1.11729272
H        0.75086254       3.24112921      -0.63655166
H        1.91400463       4.31237466       0.18459916
H        4.54108510       1.59871394      -0.31217332
H        3.93622121       4.63586508       0.01828867
H        6.55941496       3.07676680      -0.43806255
H        6.33307643       4.91542810      -0.24827581
