19
Properties=species:S:1:pos:R:3 -1919.1956107121396=T 12.217917=T 13.73732=T -9.19=T -7.053=T -10.298=T 0.9881=T 0.1257=T 2.921=T 10.01407=T -2.50638=T 8.1689787918=T 10.369631103=T 0.576747626=T pbc="F F F"
C        0.79015444       0.01130346      -0.54406210
C        2.22192896       0.00226184      -0.04283762
C        3.23660600      -0.76994237      -0.86342897
C        3.24979177       0.74446914      -0.87461874
C        2.44331865       0.01105752       1.45076913
C        1.55968115       0.77852730       2.40873922
C        1.55225049      -0.73542947       2.41839111
H        0.77118833       0.00212060      -1.64275140
H        0.24798540       0.91105004      -0.21471839
H        0.23126036      -0.87243349      -0.19962497
H        2.88496518      -1.28701166      -1.75782154
H        4.03877332      -1.28350177      -0.33082138
H        4.06090211       1.25181434      -0.34964680
H        2.90703891       1.25429882      -1.77658679
H        3.50482754       0.00745902       1.71724378
H        0.67846286       1.28031875       2.00782528
H        2.03529655       1.30213125       3.23865653
H        2.02284468      -1.25304827       3.25489880
H        0.66620331      -1.23373505       2.02378484
