18
Properties=species:S:1:pos:R:3 -1691.034217076304=T 10.793467=T 12.02443=T -9.2559=T -6.9368=T -10.581=T 0.9616=T -0.0042=T 2.977=T 9.95521=T -2.69932=T 8.6234618734=T 11.6860028636=T 0.0901069=T pbc="F F F"
C        1.55051376       0.13828755       0.71620290
O        2.85661799       0.23229807       0.16360341
C        3.43718331       1.52588890       0.36305522
C        4.74157066       1.55096871      -0.42647916
O        4.49190262       1.23326964      -1.80440948
C        5.43870231       2.90834795      -0.38642072
N        4.56672210       3.96359810      -0.92072321
H        1.17748390      -0.87028685       0.49705213
H        0.86806355       0.88504745       0.26976444
H        1.56527878       0.28661599       1.81189052
H        3.63565154       1.69873884       1.43935358
H        2.75931650       2.31709178      -0.00318659
H        5.42644507       0.79648333       0.01005644
H        3.85066261       0.49723766      -1.78815158
H        6.39932223       2.79471833      -0.92688681
H        5.68178089       3.14521257       0.66214500
H        4.35526544       3.73945709      -1.89726762
H        5.06534676       4.85492490      -0.92645846
