15
Properties=species:S:1:pos:R:3 -1460.2782643889204=T 10.754983=T 11.40137=T -9.0065=T -6.9701=T -10.158=T 1.0901=T -0.0522=T 0.545=T 9.55208=T 0.12794=T 5.5287341176=T 6.3008197368=T 0.23278395=T pbc="F F F"
C        1.08646012      -0.04296125       0.43525629
C        2.53002197      -0.08752118       0.03702239
N        3.10035566      -1.05919306      -0.59409194
O        2.17100992      -2.09107282      -0.90158820
C        3.43680157       1.04958527       0.34976948
C        2.98403576       2.47424690       0.28625548
N        3.15850075       1.81589236       1.59153837
H        0.45084845       0.17181860      -0.43756444
H        0.92860619       0.72392481       1.20263633
H        0.77223733      -1.02109419       0.82214593
H        2.74903575      -2.74386437      -1.33382380
H        4.47895576       0.85825074       0.08132380
H        1.94641009       2.69987799       0.02818714
H        3.71526429       3.21475373      -0.04737986
H        4.04558636       2.09906648       2.01769303
