19
Properties=species:S:1:pos:R:3 -1878.2992698537657=T 11.664686=T 13.08639=T -9.1018=T -7.0949=T -11.231=T 0.9088=T 0.0135=T 2.851=T 10.5066=T -2.54387=T 9.0603885374=T 9.9669617708=T 0.117478919=T pbc="F F F"
C        1.06008175      -0.10346447       0.36171182
C        2.51281042       0.10432352      -0.00917434
C        3.31150977       1.21334794       0.70139601
C        4.30916021       0.09070590       1.08550333
C        4.54107243      -0.13514233       2.57100896
C        5.61343852       0.10395167       0.29594889
O        3.38968321      -0.93056290       0.53987837
H        0.69303956      -1.05733116      -0.04364514
H        0.44046696       0.70550274      -0.05468907
H        0.93312195      -0.11940930       1.45371208
H        2.61894046       0.14023644      -1.11028100
H        2.78605550       1.64877323       1.56295653
H        3.70893222       2.01718034       0.06824308
H        3.58642049      -0.16658652       3.11306445
H        5.16001020       0.67093997       2.99358513
H        5.06222195      -1.09006131       2.73477501
H        5.42078899       0.24251819      -0.77705029
H        6.14628448      -0.84897308       0.42844678
H        6.26946092       0.91831115       0.63958941
