16
Properties=species:S:1:pos:R:3 -1618.6091053969842=T 10.29103=T 11.38755=T -8.9238=T -6.7931=T -10.202=T 0.9148=T 0.0125=T 2.672=T 9.5365=T -2.35612=T 8.0732739984=T 10.686043375=T 0.164503144=T pbc="F F F"
C        1.46243865       0.30660698      -0.17643136
C        2.83926293      -0.24592513       0.05966707
C        3.07241243      -1.74421228       0.25423109
N        4.53255883      -1.95912471       0.18679740
C        5.06996276      -0.86132040      -0.64733957
C        4.09512292       0.29365682      -0.49072105
O        3.73727864       0.54563046       0.89146367
H        1.50092416       1.38838866      -0.35615071
H        0.81784379       0.12766232       0.69729176
H        0.99393442      -0.17921736      -1.04524472
H        2.56589484      -2.28853696      -0.56408797
H        2.67342114      -2.12430181       1.20618407
H        4.89752295      -1.81875103       1.13059810
H        6.09664783      -0.61712200      -0.33898658
H        5.09954772      -1.16121612      -1.71094013
H        4.12868599       1.17104257      -1.14441107
