11
Properties=species:S:1:pos:R:3 -1136.5740598014543=T 9.431697=T 10.36761=T -9.7063=T -7.5812=T -10.542=T 1.3378=T -0.3842=T -0.499=T 10.05763=T 0.74423=T 5.093096908=T 6.1858599176=T 0.219376787=T pbc="F F F"
O        0.95669936      -0.01447909       0.25670613
S        2.40926363       0.02398060       0.14976332
O        3.26643455       0.27046278       1.30164449
C        3.03891767      -1.35419745      -0.88072629
C        3.47070389      -0.68080963      -2.14272571
C        3.30807493       0.65016321      -2.12785167
O        2.78420152       1.25284578      -1.01016430
H        2.20231518      -2.05701361      -0.99768728
H        3.85178932      -1.82195893      -0.30769423
H        3.87592110      -1.22666364      -2.99016513
H        3.54582885       1.35711997      -2.92102933
