12
Properties=species:S:1:pos:R:3 -1289.4466936981514=T 9.437904=T 9.55696=T -8.8376=T -6.9195=T -10.357=T 0.2183=T -1.5002=T -0.681=T 9.69705=T 1.19785=T 4.1228940594=T 11.983804837=T 0.371899116=T pbc="F F F"
O        1.18186666       0.03422594       0.34983032
N        2.58388529       0.00928300       0.32162979
C        3.27197641      -1.20746448      -0.05770737
C        4.60282239      -0.66448757      -0.50924263
C        4.57448983       0.68101518      -0.54401064
C        3.21847280       1.14179780      -0.15796755
O        2.64934970       2.23377914      -0.25180554
H        1.02335996       0.99395698       0.14739206
H        2.73709572      -1.71876900      -0.87711603
H        3.36207725      -1.91165381       0.78558377
H        5.45072905      -1.31149154      -0.72590632
H        5.37012495       1.36162835      -0.83608985
