12
Properties=species:S:1:pos:R:3 -1269.0527282106923=T 9.315407=T 9.49547=T -8.9661=T -7.0508=T -9.091=T 0.8821=T 0.0112=T 0.513=T 8.43066=T 0.00591=T 4.9932633808=T 12.8167675822=T 0.437209222=T pbc="F F F"
C        1.00099015      -0.00891159      -0.00733766
N        2.45251874       0.03868792       0.00132259
C        3.25451770       1.14222237       0.00373095
C        4.56391041       0.68281331       0.01041313
C        4.44272966      -0.72351068       0.01157243
N        3.15889692      -1.11662079       0.00570551
H        0.61288327       1.01542647      -0.00013451
H        0.63762732      -0.54342048       0.88006537
H        0.64655365      -0.52747766      -0.90785113
H        2.83951059       2.14537649       0.00060974
H        5.46887670       1.28107480       0.01435213
H        5.22954489      -1.47329014       0.01643145
