16
Properties=species:S:1:pos:R:3 -1595.3545798288244=T 10.174599=T 10.98639=T -8.4123=T -6.3235=T -10.081=T 0.9593=T 0.0416=T 3.02=T 9.48357=T -2.76845=T 8.0674714536=T 11.6236007098=T 0.09948025=T pbc="F F F"
C       -0.86800861      -0.04398946      -1.12496952
C       -0.58265776       1.06291637      -0.08603485
C       -1.11649187       0.03951354       0.93232800
N       -0.68376499      -1.06792388      -0.01560424
C        0.77634758      -1.23667160       0.18843091
C        1.57845677       0.04925030      -0.12746382
O        0.82640637       1.25488704       0.11937984
H       -1.91641366      -0.04856319      -1.45536469
H       -0.20920535      -0.14865786      -1.99800485
H       -1.02519436       2.06634307      -0.17810025
H       -0.64192947       0.02484957       1.92392685
H       -2.21285156       0.03463185       1.02998026
H        0.92137706      -1.55804423       1.23124003
H        1.13605734      -2.05256798      -0.45993312
H        1.89666622       0.04170366      -1.18543436
H        2.48775629       0.11803281       0.48726381
