17
Properties=species:S:1:pos:R:3 -1727.8839847032505=T 11.693466=T 12.83992=T -9.741=T -7.5244=T -9.636=T 1.3277=T -0.0963=T 1.286=T 9.08669=T -0.71099=T 6.7189005288=T 0.444004387=T pbc="F F F"
O        1.10322537       0.33660771       0.11009687
C        2.49701689       0.01737009      -0.08057010
C        2.61268294      -0.69701384      -1.39783623
C        3.15420199      -1.90859130      -1.55264838
C        3.34663368       1.27375446      -0.04569785
C        3.73337106       1.86153524       1.29816854
C        4.77698044       1.20950592       0.42169391
H        1.06857061       1.02166527       0.80226548
H        2.84474959      -0.66221865       0.72539296
H        2.22640814      -0.14580860      -2.26206320
H        3.52724734      -2.47797597      -0.69738055
H        3.24380501      -2.37389945      -2.53512009
H        3.12042383       1.98716815      -0.84324250
H        3.42618838       1.32138117       2.19648063
H        3.74728921       2.94661747       1.40390841
H        5.50731977       1.84656287      -0.07694077
H        5.16167575       0.23642946       0.73140289
