15
Properties=species:S:1:pos:R:3 -1469.7976780449196=T 12.186643=T 11.99471=T -7.9949=T -6.0439=T -8.664=T 0.6566=T -0.9436=T -0.144=T 8.1879=T 0.60929=T 4.6211689962=T 11.3096557592=T 0.199877687=T pbc="F F F"
C        1.44959020       0.23824638      -0.68995695
O        2.83187734       0.40210861      -0.38397309
C        3.23206423       1.67188060      -0.02851297
C        2.43529896       2.75835211       0.04828317
C        4.67209009       1.65062438       0.25922196
N        5.33160324       2.72409040       0.53133418
N        6.64555556       2.59987972       0.87370667
H        1.31774547      -0.82140153      -0.93586073
H        1.15755678       0.85965493      -1.55298938
H        0.81822408       0.50135395       0.17514555
H        1.37373000       2.73504551      -0.18031291
H        2.88311063       3.70155439       0.35198689
H        5.15015375       0.65591137       0.22816474
H        7.15832346       3.45455498       0.67029951
H        7.12512622       1.75620419       0.53479338
