15
Properties=species:S:1:pos:R:3 -1469.9686789113184=T 10.462699=T 11.00124=T -8.5428=T -6.6264=T -9.923=T 0.9991=T -0.0835=T 0.364=T 9.23937=T 0.24264=T 4.2446979058=T 12.581851308=T 0.330094999=T pbc="F F F"
C        0.83418084      -0.05041605       0.17122049
N        2.14330193      -0.34366218      -0.39128349
C        2.55487431      -1.64749467      -0.54539579
O        1.81325690      -2.62567016      -0.51412330
N        3.13306619       0.66589072      -0.10399116
C        4.11924995       0.83412862      -1.20022038
C        3.02513060       1.82224153      -1.03524975
H        0.36808476       0.79308958      -0.35683790
H        0.92543962       0.19851829       1.23998466
H        0.22179396      -0.95046670       0.05090940
H        3.64733823      -1.71602516      -0.73640287
H        4.04279969       0.16059072      -2.05543432
H        5.13057591       1.05144654      -0.85507110
H        3.20715315       2.78773511      -0.56277468
H        2.22245395       1.78919381      -1.77445983
