15
Properties=species:S:1:pos:R:3 -1636.014463651896=T 14.042106=T 14.44644=T -8.4786=T -6.5086=T -8.238=T 0.2391=T -1.2374=T 0.084=T 7.68641=T 0.52461=T 3.8093582626=T 5.0935556562=T 0.519594789=T pbc="F F F"
C        0.97754161       0.05418642       0.01467153
C        2.43071285       0.02422847       0.00501634
C        3.64837642      -0.02302417      -0.00742966
C        5.07741509      -0.04036400      -0.01158432
C        5.76122265      -1.16929768      -0.33197712
C        5.79681909       1.19432540       0.33979849
C        5.21978939       2.36048153       0.67237340
H        0.59962631       1.08710003       0.03655192
H        0.57718912      -0.46831320       0.89686099
H        0.56524653      -0.43654425      -0.87977765
H        5.24395794      -2.09100665      -0.59383567
H        6.85203426      -1.17400644      -0.33290320
H        6.88808179       1.11442818       0.31658534
H        4.13328572       2.46227545       0.70201273
H        5.82033122       3.23517090       0.92129687
