11
Properties=species:S:1:pos:R:3 -1326.0159758821374=T 11.613054=T 11.47328=T -8.4417=T -6.4709=T -7.995=T 0.5306=T -1.0133=T -0.063=T 7.55349=T 0.59948=T 3.9114607336=T 11.2914298172=T 0.483300495=T pbc="F F F"
C        0.95957371      -0.07379865      -0.00299338
C        2.17475581      -0.00413026       0.00045156
C        3.57504058       0.10400528       0.00393160
C        4.42790457       1.18730552       0.00329219
C        5.75428135       0.66563507       0.00824609
C        5.63010640      -0.69749960       0.01163879
O        4.31678246      -1.06787709       0.00907673
H       -0.10920176      -0.13613900      -0.00601258
H        4.12216453       2.22835849      -0.00034510
H        6.68326920       1.22711660       0.00921405
H        6.34604316      -1.51216635       0.01576004
