15
Properties=species:S:1:pos:R:3 -1613.389826150484=T 13.493058=T 13.1413=T -9.0587=T -7.1462=T -9.099=T -0.6593=T -2.1996=T -0.953=T 8.56419=T 1.57832=T 3.47718737=T 4.5029483452=T 0.793972484=T pbc="F F F"
C        1.13641822      -0.48980281       0.05001662
C        2.63811310      -0.29300370      -0.03692780
O        3.41092561      -1.24471952      -0.13894925
C        3.11294836       1.11397528       0.01026338
C        4.43074426       1.42330431      -0.03530788
C        4.96184904       2.76545820       0.00810120
C        6.28083070       3.04375628      -0.03426899
H        0.63408698       0.04227877      -0.77268331
H        0.75150009      -0.06049521       0.98800301
H        0.89399907      -1.55665797       0.00361957
H        2.36139031       1.90636197       0.08680954
H        5.13980779       0.59047173      -0.10942455
H        4.24069569       3.58691247       0.07889861
H        7.02411176       2.24646889      -0.10468195
H        6.64941902       4.06900132       0.00019181
