15
Properties=species:S:1:pos:R:3 -1556.1613400996846=T 14.136678=T 13.19145=T -8.5324=T -6.7321=T -8.663=T -0.1162=T -1.6882=T -0.606=T 8.04411=T 1.09433=T 4.6078528998=T 0.940833717=T pbc="F F F"
N        3.80290924      -0.89078423      -1.53327752
C        3.03658717      -0.58545821      -0.40577304
N        2.25798586      -1.40489521       0.23015663
C        3.17712644       0.76724435       0.15356720
C        4.06149701       1.71552248      -0.23437080
C        4.14036959       3.03133448       0.36457804
C        5.01794162       3.98277809      -0.01082041
H        3.98880936      -0.12106698      -2.17214907
H        3.53007023      -1.74135955      -2.01852623
H        2.22890921      -2.32336268      -0.23714918
H        2.48389158       0.96496849       0.97432806
H        4.78811611       1.50334980      -1.02722319
H        3.43074646       3.24360778       1.17142519
H        5.74025224       3.80607849      -0.81132458
H        5.03812787       4.96045290       0.47023891
