10
Properties=species:S:1:pos:R:3 -1146.0374953866585=T 9.173438=T 9.54833=T -10.7199=T -8.6713=T -10.512=T -0.541=T -2.3553=T -0.478=T 10.19791=T 1.02751=T 4.8332098534=T 9.3472549456=T 0.238169228=T pbc="F F F"
N        0.92939002       0.00018769       0.13819758
C        2.09314728       0.00011772       0.05978494
C        3.54476068       0.00002087      -0.04874612
C        4.16085582       1.13842487      -0.83242440
N        4.96446675       0.72436746      -1.74868476
N        4.96448067      -0.72756152      -1.74728937
C        4.16087171      -1.13987110      -0.83023725
H        3.97382515       0.00100906       0.97349888
H        3.98749004       2.19780545      -0.64321000
H        3.98752188      -2.19889050      -0.63899949
