16
Properties=species:S:1:pos:R:3 -1623.8910089296003=T 11.247462=T 12.01153=T -8.3705=T -6.2873=T -9.086=T 0.7575=T -0.2356=T 1.357=T 8.51603=T -0.77187=T 6.2158149352=T 0.418938893=T pbc="F F F"
N        0.99980833       0.05697267      -0.12256863
C        2.45607256      -0.02233801       0.03087278
C        2.99426450       1.07686140       0.95722316
O        4.21987368       0.55285668       1.51051236
C        4.18804049      -0.82949714       1.45464448
C        5.19180325      -1.57677844       1.93280187
C        2.90466849      -1.27534184       0.79587992
H        0.66856213      -0.74024641      -0.67173362
H        0.74983691       0.88853238      -0.66483094
H        3.01106513       0.02645020      -0.92767213
H        2.26618850       1.27348910       1.76408076
H        3.24055324       2.01835856       0.44645767
H        5.14647541      -2.66035159       1.85378136
H        6.05796019      -1.11928858       2.40765649
H        3.04790489      -2.15945155       0.16107295
H        2.14146230      -1.51152742       1.55759152
