15
Properties=species:S:1:pos:R:3 -1564.7392598735585=T 11.656868=T 11.97889=T -7.7572=T -5.7635=T -8.134=T 0.7349=T -0.2083=T 0.781=T 7.60203=T -0.13139=T 4.7908562358=T 5.4574173704=T 0.218601255=T pbc="F F F"
C        0.97933485      -0.01344051       0.20234015
C        2.41894058       0.08820887      -0.21038306
C        3.17295025       1.20141919      -0.17216270
C        4.64269392       1.39857899      -0.54153349
N        4.91985466       2.84617408      -0.41885102
C        3.82433111       3.36743493       0.00880015
N        2.77333371       2.48799524       0.24680354
H        0.80035225      -0.92575284       0.79182072
H        0.29869232      -0.06188636      -0.66519985
H        0.65863691       0.83436263       0.82597346
H        2.89797411      -0.81952234      -0.58392752
H        4.87153608       1.05811147      -1.56362923
H        5.30997481       0.84407593       0.13894764
H        3.69039767       4.43230607       0.21044879
H        1.80594678       2.77833465       0.33899242
