12
Properties=species:S:1:pos:R:3 -1282.3908360479766=T 11.788679=T 11.85508=T -8.2449=T -6.5203=T -9.884=T 0.3488=T -1.2332=T -0.673=T 9.13037=T 1.17308=T 4.1307671704=T 11.593124951=T 0.229373619=T pbc="F F F"
C        0.87683388      -0.03416376      -0.05696464
N        2.32898610       0.01357079      -0.05416349
S        3.18639886       1.47219249      -0.36049761
C        4.69463266       0.63230543      -0.16817805
C        4.53921418      -0.68314539       0.11261167
C        3.14242689      -1.11500721       0.19357300
O        2.67655668      -2.23115595       0.42844365
H        0.45375160       0.62096964       0.71780423
H        0.61472370      -1.07664869       0.16590322
H        0.46899186       0.24229086      -1.03948320
H        5.61438338       1.20054758      -0.28229139
H        5.35136024      -1.38770579       0.27035260
