14
Properties=species:S:1:pos:R:3 -1425.1319023558674=T 12.177872=T 12.40723=T -8.8126=T -6.8687=T -9.546=T 0.3893=T -1.2281=T -0.143=T 8.99932=T 0.70572=T 3.931968018=T 11.3084778922=T 0.435340648=T pbc="F F F"
C        1.70852576      -0.61718141      -0.66998547
O        3.11599587      -0.42445599      -0.46115838
N        3.35445933       0.94434789      -0.29234071
C        4.62482262       1.16641963      -0.09925526
C        5.68122639       0.09309053      -0.06490790
C        4.99954347       2.52603506       0.08813191
C        5.40850865       3.65938373       0.25804642
H        1.57951379      -1.69919215      -0.79120520
H        1.37509817      -0.09153367      -1.57625601
H        1.13522228      -0.26169601       0.19817570
H        5.45567616      -0.63211844       0.73015934
H        6.67097522       0.52717004       0.10601398
H        5.68254698      -0.46449750      -1.01250529
H        5.74285530       4.66577830       0.40522687
