19
Properties=species:S:1:pos:R:3 -1923.1000854171125=T 12.80324=T 14.05585=T -9.0069=T -6.9028=T -8.999=T 1.1876=T 0.0704=T 1.454=T 8.34705=T -0.78139=T 6.2746090964=T 0.39085844=T pbc="F F F"
C        2.28722282      -0.35990770       1.74529173
C        2.21359601      -0.02016704       0.24758189
C        2.92954658       1.26217331      -0.12375179
C        2.25259249       2.35406083      -0.51494887
C        4.42129892       1.22197040      -0.03238559
C        5.23478242       0.73782524      -1.22417235
C        5.31613534       2.17890048      -0.77589823
H        1.73620495      -1.28669963       1.96003876
H        1.84816829       0.44611916       2.35103074
H        3.32351027      -0.50824281       2.08144112
H        1.15806810       0.05885410      -0.05482947
H        2.65086640      -0.85321818      -0.32985358
H        1.16439994       2.34001493      -0.60333298
H        2.75749486       3.29116541      -0.75438358
H        4.80491868       0.88181347       0.93437261
H        4.68627999       0.53385960      -2.14508096
H        6.08566720       0.08113759      -1.03824493
H        6.22636851       2.51407383      -0.27779939
H        4.85019824       2.92741700      -1.41695512
