17
Properties=species:S:1:pos:R:3 -1684.0614128811897=T 10.978655=T 11.92225=T -8.8185=T -6.6914=T -9.887=T 0.8754=T -0.1019=T 2.915=T 9.32315=T -2.56845=T 7.893134739=T 10.6981444086=T 0.108569937=T pbc="F F F"
C        1.43244864       0.29370261      -0.27457168
C        2.82782630      -0.15941230       0.06824551
C        3.08577108      -1.64343359       0.35122092
N        4.53961891      -1.86546744       0.23997598
C        5.05360876      -0.81344449      -0.66126585
C        4.08102285       0.35564503      -0.55856009
N        3.68900932       0.80071480       0.79660064
H        1.42057398       1.36780321      -0.49933852
H        0.74468571       0.11945225       0.56771135
H        1.04424956      -0.25385707      -1.14712059
H        2.55406053      -2.24249391      -0.41108414
H        2.72101407      -1.97139590       1.33751600
H        4.97654400      -1.77897404       1.15756773
H        6.09014327      -0.55633618      -0.39333947
H        5.06470381      -1.17915137      -1.70431136
H        4.07832031       1.12943108      -1.33081517
H        4.25646890       0.30263729       1.49608874
