15
Properties=species:S:1:pos:R:3 -1554.002042146231=T 10.04529=T 11.28697=T -9.582=T -7.4436=T -10.547=T 0.6875=T -1.1229=T 0.102=T 9.83032=T 0.67334=T 3.7109753716=T 12.8728960444=T 0.148259442=T pbc="F F F"
C        0.94392345       0.05558257       0.25207980
C        2.38823479      -0.08273340      -0.18989477
O        3.28188229       0.95480156       0.33557457
C        4.15101228      -0.00568888       1.02346389
C        5.59276602       0.01145309       0.55165422
C        3.25086295      -1.13894292       0.51362603
O        3.22892345      -2.34054553       0.62273593
H        0.35921587      -0.79638255      -0.12265254
H        0.51155119       0.97996229      -0.15417274
H        0.86620676       0.08418569       1.34720273
H        2.46185331      -0.14014158      -1.29221742
H        4.09047301       0.12684745       2.11991978
H        5.65584858      -0.14841475      -0.53309355
H        6.15884616      -0.78164345       1.06026988
H        6.05641990       0.97811039       0.79056420
