14
Properties=species:S:1:pos:R:3 -1395.129729876127=T 11.082624=T 11.28826=T -8.5938=T -6.5901=T -9.592=T 1.473=T -0.2011=T 0.437=T 9.14737=T 0.20564=T 5.7266901652=T 6.5265114526=T 0.302280154=T pbc="F F F"
C        0.68008045       0.46269247       0.71760914
C        1.77963673       1.28252512       0.12238707
O        2.48321544       0.85972650      -0.97728809
C        2.18876435      -0.33749608      -1.59348186
C        2.89985821      -0.74912153      -2.64609420
N        2.05808319       2.41300009       0.67613484
O        3.11322361       3.08860399       0.01584004
H        0.29476228       1.00320268       1.58807529
H        1.03918067      -0.52402998       1.04653285
H       -0.14617616       0.30919999       0.00707951
H        1.35703316      -0.90803147      -1.17882662
H        3.72530766      -0.15942755      -3.04239858
H        2.64846808      -1.69462317      -3.12060398
H        3.18145232       3.89400894       0.55788459
