14
Properties=species:S:1:pos:R:3 -1415.3840704765323=T 9.804988=T 10.60486=T -9.2762=T -7.3424=T -10.51=T 0.8509=T -0.3803=T 0.309=T 9.90137=T 0.37702=T 4.2782361188=T 12.7680658814=T 0.215518737=T pbc="F F F"
C        0.87401671       0.06645895       0.14288282
C        2.38583369       0.07042281       0.03310814
C        3.21238870       1.08959500       0.86579317
C        4.01374015      -0.12037251       1.41140437
O        5.02342043      -0.29812463       2.05472396
N        3.08428516      -0.97764580       0.82145443
O        3.29824105      -2.29602126       0.38757978
H        0.45120411      -0.84006517      -0.31379651
H        0.44835938       0.93283564      -0.38333274
H        0.55810842       0.10731259       1.19538039
H        2.71388323       0.05064558      -1.01978608
H        2.64711814       1.64078770       1.62710101
H        3.83536611       1.77405145       0.27822521
H        2.81749472      -2.84841035       1.03520204
