19
Properties=species:S:1:pos:R:3 -1872.730884762576=T 12.167155=T 13.11444=T -9.5998=T -7.4231=T -9.554=T 1.1995=T -0.1368=T 1.265=T 8.97728=T -0.67859=T 6.6236544836=T 0.443791174=T pbc="F F F"
C        0.92935651      -0.19680853       0.09194151
C        2.45341872      -0.04272637       0.01369751
C        3.11781643      -0.70560871       1.23833915
C        2.92753054      -0.76798785      -1.27932039
O        4.33719490      -0.72235096      -1.51392879
C        2.89372661       1.40474718      -0.04725706
C        2.11723910       2.49197674      -0.13293724
H        0.42718044       0.24420109      -0.78230463
H        0.53008883       0.28699779       0.99508871
H        0.65536701      -1.26159373       0.13410044
H        2.82603527      -0.19293929       2.16609788
H        4.21270933      -0.67519328       1.15109649
H        2.81310412      -1.76057572       1.31640802
H        2.37166358      -0.35850333      -2.14245093
H        2.67867776      -1.83773826      -1.19255495
H        4.55413120       0.17035583      -1.83407646
H        3.98051092       1.54879276      -0.00024714
H        1.02754268       2.43329398      -0.16301147
H        2.55478606       3.49091069      -0.16787065
