16
Properties=species:S:1:pos:R:3 -1613.2091345621955=T 11.259434=T 12.68972=T -10.0408=T -7.6054=T -9.813=T 0.9523=T 0.0142=T 2.346=T 9.44102=T -1.97283=T 4.3672332696=T 10.617417124=T 0.888258963=T pbc="F F F"
C        0.96416754      -0.11847534       0.00713813
C        2.49159293      -0.03579595       0.01093209
C        3.01023663       1.40393026       0.00431593
C        4.55001646       1.47844522       0.00940465
C        5.06522901       2.84183140       0.00253976
C        5.47051375       3.98648363      -0.00815459
H        0.61853159      -1.16201467       0.01208395
H        0.54171743       0.36932356      -0.88453724
H        0.53677625       0.37937964       0.89086684
H        2.89276012      -0.57168286      -0.86688691
H        2.88779248      -0.56181688       0.89693945
H        2.62335795       1.94688943       0.88214152
H        2.62966552       1.93653698      -0.88255137
H        4.94750764       0.93861988      -0.86764482
H        4.94101265       0.94926826       0.89582714
H        5.83457206       4.99334745      -0.01464454
