22
Properties=species:S:1:pos:R:3 -2073.1612126224927=T 13.352801=T 14.93929=T -8.2413=T -6.2165=T -9.691=T 0.9327=T 0.045=T 3.202=T 8.89976=T -2.94399=T 7.7336143514=T 11.422644201=T 0.210967762=T pbc="F F F"
C        2.24336131      -0.42275689      -1.93172389
C        3.28514089       0.38494918      -1.15527684
C        2.68847921       1.59881841      -0.43558924
C        3.74639646       2.41034405       0.31409857
N        3.19913905       3.49024203       1.14202143
C        4.22764850       4.03011100       2.02554164
C        2.61485933       4.56043025       0.33896583
H        2.69802707      -1.28628969      -2.43828620
H        1.75359508       0.19503566      -2.70029085
H        1.45618269      -0.80374400      -1.26305000
H        4.07783069       0.72263994      -1.84530312
H        3.78224240      -0.26804603      -0.41691262
H        1.92129229       1.26961890       0.28573945
H        2.17269525       2.23127208      -1.17753010
H        4.49836069       2.80368664      -0.41330582
H        4.29311620       1.73120875       0.98989930
H        4.62930923       3.22913922       2.66290993
H        3.78901962       4.79934706       2.67773710
H        5.07810637       4.49280437       1.47340214
H        1.78616442       4.17802078      -0.27068250
H        3.35596871       5.04068774      -0.34160133
H        2.21012454       5.33684056       1.00366712
