19
Properties=species:S:1:pos:R:3 -1886.6551100827528=T 11.768755=T 13.1211=T -9.6233=T -7.4269=T -10.94=T 1.2213=T -0.7868=T -0.008=T 10.05636=T 0.64673=T 3.6774619558=T 10.929861844=T 0.127479332=T pbc="F F F"
C        0.90440545      -0.15307044       0.28931258
C        2.38643268      -0.04720562       0.65639124
C        2.98319302       1.36695330       0.51476908
C        2.33736277       2.37605733       1.47272924
C        4.50108680       1.33456916       0.72895443
C        5.32737540       0.72045742      -0.37414265
O        4.90841162       0.35420330      -1.45727776
H        0.56177224      -1.19590715       0.35026740
H        0.72735615       0.19408888      -0.74031871
H        0.26535095       0.44018126       0.95927205
H        2.95934402      -0.73246027       0.01280198
H        2.53595302      -0.39036716       1.69676786
H        2.80587738       1.70128504      -0.52302119
H        2.49301666       2.07980240       2.52316408
H        1.25475560       2.45966125       1.30648203
H        2.76839914       3.37989212       1.34080877
H        4.76626218       0.81673265       1.67095363
H        4.90733241       2.35716236       0.86012535
H        6.42088253       0.63661417      -0.13337940
