9
Properties=species:S:1:pos:R:3 -810.4796555181408=T 5.116036=T 5.31348=T -9.9342=T -7.4877=T -11.772=T 1.066=T 0.0787=T 3.563=T 11.08823=T -3.44428=T 9.5156651294=T 19.4937484444=T 0.565780852=T pbc="F F F"
C        0.98729036      -0.00489977       0.00422631
O        2.40628482       0.01941219       0.00000800
C        2.90288012       1.34890404      -0.00422560
H        0.67992688      -1.05837153       0.00430684
H        0.56972709       0.49412138      -0.89181424
H        0.57522891       0.49273287       0.90359931
H        3.99851510       1.28696524      -0.00431284
H        2.57185326       1.90908978       0.89181076
H        2.57131345       1.90342581      -0.90359854
