15
Properties=species:S:1:pos:R:3 -1576.518610045807=T 9.884564=T 10.87572=T -9.2245=T -7.1728=T -10.665=T 0.9679=T -0.8204=T 0.2=T 9.73072=T 0.54629=T 3.7385002636=T 13.1268069738=T 0.117078303=T pbc="F F F"
O        0.98719876       0.05521048      -0.03976180
C        2.41362156      -0.03434970       0.00849596
C        2.95852341       1.12644835       0.85720773
C        4.36934602       0.67882901       1.25628602
C        4.30163491      -0.85181447       1.30931981
O        5.16240658      -1.58803001       1.75196560
C        2.96566463      -1.28981531       0.70176640
H        0.66234541      -0.60277545      -0.67765326
H        2.83222903       0.03561787      -1.01465090
H        2.31526433       1.22081519       1.74679095
H        2.92566804       2.08212886       0.31873665
H        5.11534057       0.93785368       0.48493915
H        4.74252488       1.08742114       2.20454906
H        3.08540813      -2.17855931       0.06792329
H        2.29550374      -1.55977033       1.53722534
