15
Properties=species:S:1:pos:R:3 -1577.2645951604889=T 13.533225=T 14.49371=T -7.8222=T -5.8841=T -8.141=T 1.1855=T -0.3508=T 0.636=T 7.77571=T -0.06999=T 3.8563861524=T 5.6186859606=T 0.391038539=T pbc="F F F"
C        0.97366760       0.00362516      -0.57322740
O        2.36479625      -0.06454229      -0.23688558
C        3.01167669       1.13315601      -0.25011814
C        4.34316173       1.21761633      -0.02941235
C        5.04881231       2.44138287      -0.01361515
C        5.70448062       3.47125913       0.01167243
C        6.47847887       4.70181806       0.04096752
H        0.57863061      -1.01200462      -0.46019768
H        0.83514155       0.33655272      -1.61457964
H        0.43479833       0.68240526       0.10749986
H        2.39804196       2.02040458      -0.43827174
H        4.90016162       0.29266365       0.14909233
H        5.82882568       5.58176297      -0.08014882
H        7.22607947       4.72699051      -0.76725650
H        7.01621672       4.81497965       0.99520086
