20
Properties=species:S:1:pos:R:3 -1895.6224729500343=T 11.839718=T 13.14128=T -9.5116=T -7.3048=T -10.785=T 0.778=T -0.2049=T 2.88=T 10.12217=T -2.58272=T 8.6900795512=T 10.4183947968=T 0.082628481=T pbc="F F F"
C        0.97042556      -0.79094689       0.31277948
C        2.41854271      -0.40141719      -0.00880409
C        3.16880625      -1.57912907      -0.64524345
C        2.45236359       0.85352168      -0.89485594
O        1.73714914       1.90312316      -0.24346578
C        3.87253284       1.35526954      -1.21103578
N        3.76926467       2.69581103      -1.82096045
H        0.42933047       0.04752151       0.76839966
H        0.94235929      -1.64521434       1.00525999
H        0.43394406      -1.08481309      -0.60446098
H        2.92012674      -0.12922399       0.93844026
H        2.75177222      -1.82365012      -1.63604401
H        3.07002015      -2.47710549      -0.01804626
H        4.24315283      -1.38194170      -0.76889279
H        1.95109749       0.60214275      -1.85956451
H        2.11480676       2.71825440      -0.64685344
H        4.41207188       0.62460775      -1.83830109
H        4.42171828       1.46258742      -0.26159037
H        3.55015361       2.62033229      -2.81755086
H        4.65510146       3.19786036      -1.75034960
