16
Properties=species:S:1:pos:R:3 -1640.0072253951378=T 12.330077=T 13.05681=T -9.3305=T -7.2738=T -9.617=T 1.3115=T -0.0613=T 1.264=T 9.0628=T -0.64978=T 4.3174528906=T 6.6891810846=T 0.353072729=T pbc="F F F"
C        0.98522305      -0.01660704       0.16683789
C        2.52207610      -0.00855742      -0.00333027
N        3.10458403      -0.74680389       1.14861956
C        2.88322724      -0.79267890      -1.25637314
C        3.49986915      -0.31600961      -2.34016688
C        2.99909107       1.38464867      -0.06611694
C        3.40239977       2.53109202      -0.06320404
H        0.50339062       0.49783402      -0.67350345
H        0.70369839       0.49550937       1.09805858
H        0.63183172      -1.05538161       0.21320564
H        2.85877394      -0.25303861       2.01226008
H        4.12579374      -0.70696432       1.07924634
H        2.58426271      -1.84397068      -1.19592111
H        3.81034612       0.72894791      -2.40412666
H        3.70801820      -0.96114224      -3.19449450
H        3.75690416       3.54169233      -0.05908109
