19
Properties=species:S:1:pos:R:3 -1931.6162951487336=T 14.751569=T 14.89707=T -8.109=T -6.2213=T -8.04=T 0.7467=T -0.7402=T 0.429=T 7.4985=T 0.19295=T 4.866698472=T 0.791123483=T pbc="F F F"
C        2.20230767      -0.67459303       1.11129202
C        2.56802283       0.18379922      -0.11173524
C        2.37484646       1.66840374       0.09288591
C        0.95951695       2.11875307       0.33762969
C        3.44207454       2.50566887       0.05032086
C        3.44329544       3.94345828       0.23627508
C        4.55320736       4.70805829       0.19080933
H        2.38831363      -1.73820178       0.90459204
H        1.14187439      -0.57186789       1.38239509
H        2.80462840      -0.38753863       1.98571361
H        1.94838718      -0.14190704      -0.96760215
H        3.61567681      -0.00848175      -0.39082956
H        0.28368583       1.68637802      -0.41820880
H        0.84371339       3.20826052       0.30877650
H        0.59536409       1.77158770       1.31820600
H        4.42491919       2.05875094      -0.14246161
H        2.48541567       4.43524251       0.43089003
H        5.53761013       4.27073652       0.00581102
H        4.50823003       5.78684246       0.34016017
