19
Properties=species:S:1:pos:R:3 -1816.4099060560088=T 12.43593=T 13.11727=T -9.0924=T -6.8698=T -9.168=T 0.795=T -0.1392=T 1.382=T 8.55508=T -0.73599=T 6.3567870172=T 0.399669624=T pbc="F F F"
C        2.64737612      -0.72296128       1.83208254
C        2.52276403      -0.22341192       0.41443290
C        1.77465021      -0.86764129      -0.49661352
C        3.27834955       1.04749423       0.03607397
N        2.96394330       2.22483289       0.86759578
C        4.80179412       0.83788261       0.04614315
N        5.19406391      -0.16792477      -0.94626955
H        2.28973251       0.02581276       2.55700441
H        3.69547546      -0.94072797       2.09582498
H        2.06275308      -1.63992606       1.98143091
H        1.22328522      -1.77768792      -0.24824556
H        1.69367410      -0.50036141      -1.52200714
H        3.00405418       1.29981783      -1.00145508
H        3.24936280       2.05987230       1.83722866
H        1.95082132       2.36673921       0.88725779
H        5.12404485       0.60868570       1.08597710
H        5.26247657       1.79979461      -0.22448014
H        4.74847104      -1.06454646      -0.73133823
H        6.20344763      -0.32152308      -0.91157294
