12
Properties=species:S:1:pos:R:3 -1251.3303263158373=T 8.386171=T 8.96913=T -8.0564=T -5.9309=T -9.094=T 1.0753=T 0.1763=T 1.007=T 8.77908=T -0.54449=T 5.6839273938=T 14.3916625514=T 0.524265405=T pbc="F F F"
C        0.90119849      -0.00192011       0.14452570
C        2.32907015      -0.00676206      -0.33405626
O        2.60287919      -1.15588617      -1.16917351
C        3.48000642      -0.66348331      -2.13222229
C        3.48953712       0.67372792      -2.11720315
O        2.61938271       1.15685428      -1.14319868
H        0.72246993       0.88502813       0.76584632
H        0.71091511      -0.89734101       0.75000314
H        0.21556284       0.01017548      -0.71221270
H        3.05851445      -0.02138554       0.50658688
H        3.96955993      -1.38433968      -2.77647589
H        3.98956367       1.40183205      -2.74503956
