14
Properties=species:S:1:pos:R:3 -1452.0662903067919=T 9.560448=T 9.9952=T -9.498=T -7.224=T -9.221=T 1.0315=T -0.2199=T 1.354=T 8.69951=T -0.74639=T 6.2787006344=T 0.323363845=T pbc="F F F"
O        0.97183472       0.05175588      -0.04974854
C        2.41742589      -0.03721543      -0.02754082
C        2.95399208      -1.31812677       0.66251122
C        3.31332150      -0.90522735       2.11000637
C        3.38532949       0.59793371       2.02811669
C        2.92338817       1.07014131       0.86220531
H        0.65614848      -0.51514441      -0.77500483
H        2.79553575       0.05295334      -1.06280536
H        3.86094024      -1.65647795       0.13885092
H        2.21691363      -2.13187923       0.61346725
H        4.26121904      -1.35417317       2.44643473
H        2.54758746      -1.21420865       2.84258077
H        3.75035288       1.21644070       2.85054581
H        2.83661067       2.12159803       0.58717049
