15
Properties=species:S:1:pos:R:3 -1518.6656595476347=T 10.550544=T 11.10921=T -9.2541=T -7.2807=T -10.209=T 0.791=T -0.9872=T -0.166=T 9.78754=T 0.72778=T 3.7028170928=T 6.1510942432=T 0.146967388=T pbc="F F F"
C        3.24935054      -0.68718880       1.89491595
C        3.05138398      -0.33465338       0.43833060
O        2.61945881      -1.12904710      -0.38225019
C        3.44375627       1.08861602       0.01735472
C        4.96614515       1.20823289      -0.05318361
N        5.54542100       1.89890987       1.00288054
N        5.71489937       0.65088645      -0.93662633
H        4.25140610      -0.38502071       2.23279683
H        3.09896071      -1.76134757       2.04567927
H        2.52432351      -0.12874631       2.50799843
H        3.02503576       1.81240211       0.73406751
H        3.01541204       1.27562267      -0.97462967
H        5.02436977       2.68246495       1.38487597
H        6.53969909       2.07870656       0.87072278
H        5.15269790       0.08769235      -1.58470280
