12
Properties=species:S:1:pos:R:3 -1364.6522249465384=T 9.984826=T 10.33663=T -9.8084=T -7.7916=T -9.882=T -1.3896=T -3.1984=T -1.737=T 9.29325=T 2.08031=T 3.0207205124=T 6.8246481882=T 0.741156711=T pbc="F F F"
C        0.93272495       0.01620603      -0.00561621
C        2.41425268       0.08416303      -0.00244460
C        3.27724078       1.11642106       0.00224539
C        4.65000935       0.52610426       0.00305122
N        4.70125918      -0.76748822      -0.00075987
C        3.29953466      -1.16700143      -0.00427086
O        2.91563683      -2.31537504      -0.00802275
H        0.47683428       1.01345114       0.00002804
H        0.57153614      -0.54660378       0.86873486
H        0.57479310      -0.53485016      -0.88879815
H        3.05716600       2.18290006       0.00500668
H        5.56522205       1.12622306       0.00644625
