17
Properties=species:S:1:pos:R:3 -1627.6382477656468=T 11.118523=T 11.66388=T -8.5127=T -6.576=T -9.277=T 0.7027=T -0.2656=T 0.969=T 8.41474=T -0.4109=T 4.9897297798=T 8.4232120848=T 0.182575339=T pbc="F F F"
C        1.07534105      -0.02312189      -0.19802365
N        2.50888202       0.19048248      -0.06899573
C        3.35477708      -0.99674665       0.00213413
C        3.87881099      -1.45384621      -1.36094807
O        4.79262443      -0.52777201      -1.94504585
C        3.00862283       1.45611779       0.19125863
N        4.21778795       1.86171142       0.36326028
H        0.56561801       0.94696839      -0.25118413
H        0.67011020      -0.58410907       0.66286059
H        0.83399394      -0.58077765      -1.11683649
H        2.77074069      -1.81237364       0.46215338
H        4.20650901      -0.78783807       0.66913073
H        3.02895495      -1.65878822      -2.04055290
H        4.43823785      -2.39369054      -1.23706472
H        4.33152348       0.32643105      -2.03821291
H        2.20511768       2.20634244       0.24001056
H        4.90385784       1.09942038       0.27225612
