22
Properties=species:S:1:pos:R:3 -2084.835619764238=T 13.245717=T 15.32124=T -9.2323=T -6.9081=T -10.626=T 0.9644=T 0.0073=T 3.052=T 9.9837=T -2.8271=T 8.7655126336=T 11.0452680128=T 0.161991963=T pbc="F F F"
C        0.92906531       0.72953733       0.13164216
C        2.42087593       0.55304562      -0.15853784
C        3.21105595       1.86352203      -0.09105295
C        4.70635129       1.69444755      -0.37734402
C        5.49228594       3.00669483      -0.31349632
C        6.98133579       2.83813291      -0.61348243
N        7.68714438       4.12411199      -0.49006334
H        0.39100021      -0.22775517       0.07479970
H        0.46205554       1.41819837      -0.58930706
H        0.76609279       1.14475226       1.13815684
H        2.55139466       0.10298310      -1.15803055
H        2.85291040      -0.16715650       0.55778766
H        3.07948736       2.31667655       0.90796471
H        2.78108240       2.58421285      -0.81003578
H        4.83449426       1.23581477      -1.37439008
H        5.13457266       0.97672207       0.34539085
H        5.38615839       3.46728785       0.68274719
H        5.05976666       3.72491467      -1.03437034
H        7.09542589       2.35600336      -1.60738779
H        7.42176742       2.14539657       0.12338411
H        7.35254345       4.76821155      -1.21257703
H        8.68528332       3.99333544      -0.67017769
