12
Properties=species:S:1:pos:R:3 -1273.6854649751067=T 11.733729=T 12.45611=T -8.0618=T -6.1433=T -8.297=T 0.7027=T -0.235=T 0.565=T 7.79415=T 0.10553=T 3.7850074122=T 11.3667141164=T 0.66552577=T pbc="F F F"
N        0.94794675      -0.22089356      -0.05918793
C        2.34920309      -0.01341828      -0.01507625
C        3.15631953       1.11031828       0.11740037
C        4.49998936       0.65061383       0.07567166
Cl       5.92388983       1.64551262       0.19858505
C        4.50236863      -0.72493962      -0.07545110
N        3.18050748      -1.10876430      -0.13121956
H        0.49930969       0.39743338      -0.73667686
H        0.50969794      -0.05669220       0.84976631
H        2.82310158       2.13583377       0.23743467
H        5.32104225      -1.43055090      -0.14563521
H        2.83185385      -2.05241301      -0.26561115
