17
Properties=species:S:1:pos:R:3 -1641.0240872537122=T 11.366458=T 12.36052=T -9.2818=T -6.9578=T -9.503=T 0.9691=T -0.0364=T 1.369=T 8.97943=T -0.80825=T 6.6788282536=T 0.46362875=T pbc="F F F"
N        0.99611001      -0.50716973       0.06928847
C        2.46609599      -0.54940186       0.07516248
C        3.04581801       0.85524608      -0.08972231
C        4.58200339       0.88081326      -0.03472217
C        5.15032325       2.25366724      -0.24677162
C        5.90633410       2.92231929       0.63147211
H        0.61782559      -1.44214681       0.23532875
H        0.66273700      -0.22646885      -0.85707498
H        2.90276596      -1.21230834      -0.70182137
H        2.78286826      -0.95769374       1.04959291
H        2.63058918       1.50714443       0.69475355
H        2.70937792       1.27464377      -1.05522047
H        4.97594760       0.20276705      -0.81441030
H        4.92911428       0.48361386       0.93386930
H        4.90169375       2.73158650      -1.20248412
H        6.17519981       2.48702680       1.59776776
H        6.28257589       3.92381104       0.41753202
