21
Properties=species:S:1:pos:R:3 -2067.9663395550338=T 13.417721=T 14.50945=T -9.5061=T -7.2994=T -9.482=T 0.9838=T -0.0313=T 1.365=T 8.93537=T -0.78436=T 6.6428351178=T 0.45039953=T pbc="F F F"
C        0.93670250       0.04182174      -0.00348418
C        2.45794670      -0.18758635       0.00524677
C        2.83978501      -0.97768010       1.26953774
C        2.86165460      -0.98412428      -1.24661073
C        3.15167455       1.20805558      -0.00324182
C        4.65238997       1.19610887       0.01582255
C        5.43560801       1.68022990      -0.95597661
H        0.62571934       0.60715135      -0.89562299
H        0.61469672       0.60776321       0.88451500
H        0.39553781      -0.91671002      -0.00690264
H        2.57893497      -0.41921782       2.18217741
H        3.91579878      -1.20208835       1.30224312
H        2.30238851      -1.93778394       1.29953692
H        2.57584142      -0.44847575      -2.16538049
H        2.36333650      -1.96551667      -1.25996874
H        3.94786369      -1.15144517      -1.28191171
H        2.78912772       1.76454515       0.88089478
H        2.80645049       1.76508523      -0.89088200
H        5.12844213       0.76540910       0.90397071
H        5.01082454       2.12597134      -1.85954853
H        6.52392605       1.65206698      -0.88159454
