11
Properties=species:S:1:pos:R:3 -1185.1946061422902=T 9.405802=T 9.9108=T -10.3092=T -8.0653=T -9.872=T -0.0445=T -1.7772=T -0.231=T 9.41356=T 0.72403=T 5.0331248798=T 10.7838559304=T 0.31015756=T pbc="F F F"
O        1.68136122      -0.31493977       1.46415817
C        2.41137333      -0.08250769       0.25407363
C        2.92930460       1.31815673       0.28170240
C        4.19770730       1.64997435      -0.02194705
C        4.66559175       2.99366808      -0.05326345
N        5.08494242       4.08533435      -0.09112404
H        1.16818934      -1.13327795       1.35398216
H        1.74862014      -0.18668559      -0.62805620
H        3.24441216      -0.79960616       0.13442278
H        2.20703668       2.09416693       0.54884922
H        4.93689106       0.88242671      -0.26869762
