17
Properties=species:S:1:pos:R:3 -1672.6284181776011=T 14.538522=T 14.03832=T -7.8736=T -5.9902=T -8.361=T 0.6916=T -0.8273=T -0.088=T 7.91453=T 0.63941=T 4.6334932046=T 0.541430364=T pbc="F F F"
C        2.39489460      -0.83690687       1.23036621
C        2.88626779      -0.20942800      -0.08454228
C        3.09456640       1.27059074       0.01680309
C        4.26545505       1.90867693      -0.19781656
C        4.43989184       3.33753406      -0.08635487
N        5.59255029       3.88639151      -0.31181590
N        5.70374921       5.23430143      -0.10792785
H        2.21404313      -1.91452858       1.10918129
H        1.45380229      -0.37374343       1.56344260
H        3.13600325      -0.70058206       2.03087387
H        2.13992221      -0.41749591      -0.87293258
H        3.82270608      -0.69281154      -0.40585369
H        2.21715321       1.86589071       0.30263788
H        5.15947861       1.34066865      -0.47629136
H        3.56154012       3.94773874       0.20036148
H        6.45915591       5.62429134      -0.66716564
H        4.83355001       5.77575226      -0.18746570
