14
Properties=species:S:1:pos:R:3 -1480.2898313908445=T 10.700765=T 11.8102=T -9.4169=T -7.2272=T -9.801=T 0.8603=T -0.2035=T 0.929=T 9.33686=T -0.99922=T 5.3892870634=T 12.1980030506=T 0.544428279=T pbc="F F F"
C        2.32615078       1.87513197      -0.72678687
C        3.11550776       2.84300203      -1.21318915
O        4.44725530       3.04625028      -0.97326029
C        5.07425272       2.11159636      -0.09317921
C        6.54462095       2.53124379       0.00666700
C        7.29612599       1.64446654       0.88686093
N        7.87896373       0.92330830       1.59383518
H        1.28031207       1.86277695      -1.02588400
H        2.66634380       1.09565851      -0.04773479
H        2.74694267       3.61319786      -1.89340433
H        4.98785725       1.08853241      -0.49694388
H        4.59230269       2.13846509       0.89897322
H        6.61366529       3.56085978       0.38906838
H        7.00396902       2.51888012      -0.99332219
