14
Properties=species:S:1:pos:R:3 -1487.9202815741037=T 11.84935=T 11.66322=T -8.6027=T -6.7747=T -8.984=T 0.8426=T -0.8616=T -0.049=T 8.35399=T 0.74263=T 4.2209669854=T 5.4550864336=T 0.29968069=T pbc="F F F"
C        0.99728204      -0.33021284      -0.43030773
C        2.30039818      -0.13671605      -0.17949027
N        2.89715343       1.10975065       0.09026288
C        2.09908941       2.23948807       0.38827316
C        2.37177687       3.48794471      -0.01227597
C        4.29536391       1.18847387       0.17063609
O        5.05432313       0.27245894      -0.09721891
H        0.63438655      -1.34240968      -0.59644314
H        0.27542245       0.48340758      -0.49357908
H        3.02762137      -0.94870728      -0.17033416
H        1.23031301       2.01159044       1.01217829
H        3.19863799       3.72030555      -0.68338796
H        1.75073104       4.31282237       0.33344918
H        4.62240063       2.18514366       0.53082762
