14
Properties=species:S:1:pos:R:3 -1392.599211932259=T 11.165888=T 10.85801=T -8.2175=T -6.3023=T -8.737=T 1.2728=T -0.3094=T 0.557=T 8.05304=T -0.0739=T 4.986654927=T 5.2914869066=T 0.461679138=T pbc="F F F"
C        0.99320589      -0.26121141       0.15155784
C        2.48750916      -0.35409028       0.02445527
C        3.14345997      -1.53252919       0.02946682
N        3.19172486       0.85391535      -0.10216111
C        2.68017853       2.13936288      -0.12461181
N        3.32091186       3.24812770      -0.24043455
H        0.69673797       0.31508230       1.04113565
H        0.57043556      -1.26789536       0.24004938
H        0.54060056       0.22538276      -0.72572885
H        2.59574962      -2.46653312       0.12745497
H        4.22903253      -1.58902540      -0.06301752
H        4.20419725       0.77109460      -0.18759439
H        1.58946073       2.17971649      -0.02948680
H        4.33763551       3.09220265      -0.32285490
