12
Properties=species:S:1:pos:R:3 -1339.7273423086676=T 12.936543=T 12.32415=T -8.5297=T -6.622=T -8.646=T 0.2812=T -1.34=T -0.352=T 8.24165=T 0.90445=T 4.0529907526=T 11.3140572622=T 0.489601664=T pbc="F F F"
O        0.88307911       0.03978433      -0.02313195
C        2.10314043       0.03854169      -0.02306850
N        2.87428071       1.18628691      -0.01132153
C        4.25917587       1.21048451      -0.01112018
C        5.00705465       2.34031680      -0.00000676
C        6.41829111       2.33239983      -0.00015848
C        7.63620558       2.37066914       0.00010894
H        2.72461031      -0.88503292      -0.03235427
H        2.35433627       2.06561342      -0.00250068
H        4.72955538       0.22575714      -0.02088332
H        4.51288352       3.31743916       0.00967275
H        8.70646706       2.39534000       0.00026398
