17
Properties=species:S:1:pos:R:3 -1736.0520298887368=T 10.716734=T 11.93303=T -9.2284=T -7.2221=T -11.201=T 0.9436=T 0.0727=T 2.88=T 10.40018=T -2.58933=T 8.9593275488=T 10.9167937196=T 0.092281167=T pbc="F F F"
C        0.97640921       0.01375594      -0.01131487
C        2.50114195      -0.01414367      -0.00213325
C        3.12747314      -1.16018559       0.86355095
C        3.92038082      -0.27371895       1.84356340
C        4.61896706       0.75543252       0.92975524
C        3.14105501       1.16571670       0.77358256
O        2.92843353       0.77155673       2.18412426
H        0.56516884      -0.90615984      -0.45265834
H        0.59544034       0.86445808      -0.59719506
H        0.59090381       0.10157661       1.01496433
H        2.88406817      -0.03876816      -1.03565107
H        3.76792600      -1.84654896       0.29122481
H        2.36086950      -1.74576187       1.38982662
H        4.39839981      -0.73146751       2.71859948
H        5.17095898       0.39925826       0.04680863
H        5.19252601       1.49214910       1.50392404
H        2.81280782       2.18809062       0.54490827
