17
Properties=species:S:1:pos:R:3 -1690.7798986262424=T 11.318622=T 12.46334=T -9.4351=T -7.3981=T -10.494=T 0.8376=T -0.2421=T 1.379=T 9.72737=T -0.9955=T 5.3772604214=T 12.797896913=T 0.165971103=T pbc="F F F"
C        0.94962980      -0.24913329       0.21968631
C        2.40511160      -0.33733443      -0.23697563
C        2.60301106      -1.47570199      -1.23995994
N        2.77013611       0.96030090      -0.84928507
C        4.19530279       1.16335245      -1.09419673
C        5.05330069       1.07256339       0.10745466
N        5.67255444       1.00246146       1.09470981
H        0.81243787       0.55081359       0.96325806
H        0.63475121      -1.19267782       0.68537633
H        0.28822210      -0.04425769      -0.63538427
H        3.03635652      -0.54238444       0.65326258
H        2.00083860      -1.29841849      -2.14361573
H        2.29226290      -2.43022249      -0.79260687
H        3.65429262      -1.58995131      -1.54050952
H        2.43288620       1.71334791      -0.24386659
H        4.34360011       2.15613245      -1.54480502
H        4.55775539       0.43007978      -1.83020239
