13
Properties=species:S:1:pos:R:3 -1399.2065458291304=T 11.318687=T 10.83746=T -9.1202=T -7.209=T -9.018=T -0.4599=T -2.1446=T -0.542=T 8.58202=T 1.09337=T 4.0530651442=T 4.4835693334=T 0.297552286=T pbc="F F F"
C        0.89778316      -0.05048672       0.27429353
C        2.20854354       0.02503350      -0.02016723
C        2.97417262       1.29968319      -0.26526666
C        4.39193067       1.11544332       0.20568336
N        4.99894786      -0.01667434       0.28599909
N        4.33338081      -1.18181307      -0.18390840
C        3.03598622      -1.16545618      -0.21327931
H        0.28734038       0.84243604       0.42025727
H        0.40175941      -1.01800207       0.37297990
H        2.51338192       2.16988433       0.22259937
H        2.98332913       1.51783898      -1.35155753
H        4.96022605       1.98690835       0.55049535
H        2.55166824      -2.12118534      -0.44736873
