16
Properties=species:S:1:pos:R:3 -1705.7579051457903=T 12.082185=T 12.69426=T -7.507=T -5.6357=T -7.612=T 0.8156=T -0.0566=T 1.145=T 7.05242=T -0.51309=T 4.5834772522=T 6.1113815274=T 0.408985742=T pbc="F F F"
C        0.92127066      -0.09637322      -0.00241750
C        2.40994137       0.01852073      -0.00273305
C        3.23953875       1.13652377      -0.00053171
C        2.80484329       2.57508494       0.00352937
C        4.58743533       0.66105210      -0.00328876
C        4.55486581      -0.72097079      -0.00709901
N        3.22851158      -1.09723358      -0.00673966
H        0.46915886       0.90350445       0.01031361
H        0.54315460      -0.63728508       0.88085275
H        0.54075899      -0.61570828      -0.89759934
H        3.67924225       3.24004010       0.01001985
H        2.19973576       2.82535918       0.88922641
H        2.20724603       2.83276571      -0.88516302
H        5.48436819       1.27504397      -0.00232915
H        5.35020094      -1.45857314      -0.00960653
H        2.89568759      -2.05465085      -0.00881427
