19
Properties=species:S:1:pos:R:3 -1874.3041073747208=T 11.514942=T 12.8552=T -9.1742=T -7.097=T -11.25=T 0.8671=T -0.0398=T 2.729=T 10.57456=T -2.42712=T 8.9893817552=T 9.6800457682=T 0.114139519=T pbc="F F F"
C        0.85736761       0.06200764       0.05628456
C        2.37283586      -0.05503687       0.05529965
C        3.20161975       0.93082082       0.89695102
O        4.01437570      -0.14110728       1.44905978
C        3.10086374      -1.16086795       0.89101020
C        2.29004465      -1.80107116       2.01299431
C        3.87509078      -2.19563967       0.09062794
H        0.38626243      -0.79046270      -0.45614128
H        0.54200463       0.97419086      -0.47285345
H        0.44800460       0.11332159       1.07562168
H        2.74242366      -0.08582974      -0.98152240
H        2.61883828       1.44615970       1.68420988
H        3.81252946       1.67231075       0.35784468
H        1.77837900      -1.04394234       2.62191009
H        2.96403231      -2.36561556       2.67329431
H        1.53641863      -2.49697541       1.61447452
H        4.48496561      -1.70942247      -0.68287510
H        3.18615982      -2.90312591      -0.39579068
H        4.54461347      -2.76873429       0.74917030
