14
Properties=species:S:1:pos:R:3 -1423.6901708187052=T 12.591607=T 12.77876=T -8.9749=T -7.0012=T -9.681=T 0.2334=T -1.4558=T -0.331=T 9.2258=T 0.84905=T 3.9143248102=T 11.4656549444=T 0.407620167=T pbc="F F F"
C       -0.00784509       0.17687789       0.43459367
C        1.43462162      -0.28208529       0.48148632
O        2.22913961       0.73156975      -0.18379204
N        3.56788731       0.35598467      -0.15509081
C        4.30141199       1.25050112      -0.74365499
C        5.70126125       1.07595663      -0.83450030
C        6.90994792       1.00363423      -0.95670920
H       -0.64501530      -0.56878098       0.92944082
H       -0.35371299       0.29110130      -0.60171820
H       -0.13498612       1.13653670       0.95375352
H        1.57732211      -1.24086190      -0.04152978
H        1.79692973      -0.39056525       1.51589997
H        3.85142469       2.15302826      -1.17892623
H        7.97299328       0.91970290      -1.05331277
