15
Properties=species:S:1:pos:R:3 -1573.6117290972945=T 10.512352=T 11.26465=T -10.1464=T -8.1121=T -10.257=T 0.1668=T -1.538=T -0.616=T 9.69541=T 1.10859=T 4.1283742406=T 5.5017051696=T 0.310073177=T pbc="F F F"
C        3.05579279      -0.56954401       1.16253038
C        2.60894365       0.23712527      -0.06650530
C        2.82176982       1.72001747       0.09235150
C        1.81981365       2.61582488       0.13636657
C        4.26050133       2.16816196       0.10233267
O        4.55491605       3.28244780       0.84385745
O        5.13778872       1.59675446      -0.51118884
H        2.90840464      -1.64422129       0.98911012
H        2.47850066      -0.28618312       2.05440943
H        4.12194635      -0.40971446       1.37533186
H        1.54653145       0.04914385      -0.27948056
H        3.18864479      -0.09295409      -0.94270641
H        0.77862112       2.29607882       0.06576377
H        1.99312367       3.69276105       0.18934295
H        3.75553131       3.53756142       1.34457441
