13
Properties=species:S:1:pos:R:3 -1364.049812647417=T 9.74492=T 10.16812=T -8.7282=T -6.761=T -9.602=T 0.8466=T -0.0598=T 0.84=T 8.78458=T -0.2437=T 4.846178789=T 5.9664170962=T 0.208888699=T pbc="F F F"
N        1.16482858       0.06260459       0.60510177
C        2.29784061      -0.09639362       0.01471265
N        2.78343671      -1.32309002      -0.39083090
C        4.11122389      -1.30372164      -0.98864155
C        4.45781218       0.17523532      -1.00716229
O        3.56216411       0.96465842      -1.80892538
C        3.34900205       0.91171264      -0.37230627
H        0.99889559       1.05942997       0.77962778
H        2.15752288      -2.11889383      -0.45615117
H        4.84757201      -1.85556204      -0.37751287
H        4.11654645      -1.72638710      -2.00715564
H        5.49835160       0.50580036      -0.97720160
H        3.45513335       1.85482695       0.16809548
