18
Properties=species:S:1:pos:R:3 -1743.0331440268708=T 11.368429=T 12.48742=T -8.6457=T -6.5963=T -10.022=T 0.8886=T -0.0382=T 2.841=T 9.23153=T -2.53702=T 7.8462928282=T 12.8898077348=T 0.129596621=T pbc="F F F"
C        1.02370085      -0.00566943       0.04465587
N        2.47274129       0.01538427       0.08641648
C        3.13514445       1.04579882       0.92490389
C        4.24590330       0.00182598       1.24293178
C        4.85223630      -0.03795319       2.62740014
O        5.32542254       0.05181949       0.30544854
C        3.16761604      -1.05083866       0.85049793
H        0.68041927      -0.88186716      -0.52477545
H        0.65271558       0.89495826      -0.46624396
H        0.56488012      -0.04630019       1.05819101
H        2.54841838       1.30667738       1.83102018
H        3.43851765       1.96492679       0.39908207
H        4.07014601      -0.07726811       3.39682771
H        5.47023086       0.85549252       2.79708071
H        5.49741355      -0.92189803       2.73400537
H        4.91733670       0.07676572      -0.58048520
H        3.49859334      -1.92060186       0.26119618
H        2.59030377      -1.39322259       1.73527674
