14
Properties=species:S:1:pos:R:3 -1395.7064093937893=T 10.33501=T 10.85589=T -9.4755=T -7.3167=T -10.743=T 0.7226=T -1.2127=T -0.155=T 9.99521=T 0.62378=T 3.6902325138=T 6.6562008086=T 0.420123609=T pbc="F F F"
C        1.20430281      -0.19741320       0.40317066
C        2.69611688       0.01651459       0.17240363
O        2.94542373      -0.25510993      -1.22052011
N        4.32839833      -0.09717711      -1.46408341
C        4.62262170      -0.38141275      -2.67695821
C        3.08633967       1.45022771       0.52400376
O        3.24104867       1.83869396       1.66405199
H        0.97203655      -0.01776651       1.46003638
H        0.92846979      -1.22810128       0.14577269
H        0.60808534       0.48971089      -0.21347455
H        3.29132861      -0.66863722       0.79818670
H        5.67333056      -0.28051417      -2.94917717
H        3.88085956      -0.70722582      -3.41510908
H        3.18198781       2.13355083      -0.35810329
