14
Properties=species:S:1:pos:R:3 -1380.1867961629125=T 10.54003=T 10.69356=T -9.0288=T -6.86=T -9.424=T 1.164=T -0.7606=T 0.206=T 8.96787=T 0.3085=T 5.346214327=T 6.7392094356=T 0.454852171=T pbc="F F F"
C        3.14402141       3.11286433      -1.05381619
C        2.44475156       2.10351677      -0.52242811
O        2.90344919       0.94388544       0.06189831
C        4.29094536       0.65833433       0.02174321
O        5.01393651       1.26155191       1.09276296
N        5.80502385       2.33790380       0.62700760
C        6.43803867       2.89124372       1.59147122
H        2.59003808       3.93842196      -1.49704151
H        4.23097571       3.16517387      -1.04397623
H        1.35303439       2.09560193      -0.50560329
H        4.74075995       0.95985449      -0.93633849
H        4.35460613      -0.42420775       0.18912118
H        7.08237458       3.72732547       1.31876301
H        6.35445463       2.56330974       2.63334634
