17
Properties=species:S:1:pos:R:3 -1607.1741315542147=T 11.777642=T 12.33787=T -8.8734=T -6.8069=T -9.387=T 1.2391=T -0.3426=T 0.643=T 8.94909=T -0.07844=T 4.9071675024=T 5.6415985734=T 0.16927991=T pbc="F F F"
C        0.71503501       2.01476894       0.21632085
C        2.15532481       2.14597485       0.67362668
O        2.99954545       1.56603618      -0.32782659
C        4.38733195       1.59696430       0.02901569
C        4.98534171       2.97038269      -0.04372568
N        5.51978614       3.50363091       0.99853282
N        6.14259543       4.71572930       0.86379657
H        0.03829223       2.44093506       0.97026904
H        0.44845313       0.95926363       0.06687683
H        0.55738879       2.54776436      -0.73171298
H        2.31281963       1.62090906       1.63705778
H        2.42100866       3.20790313       0.83408789
H        4.87716241       0.93018696      -0.69895328
H        4.55077094       1.19018069       1.04414154
H        4.94825570       3.49531285      -1.01675074
H        6.15134938       5.21551970       1.75000945
H        5.81931863       5.30069741       0.08277414
