18
Properties=species:S:1:pos:R:3 -1822.3519317598877=T 12.267423=T 13.05833=T -8.9304=T -6.7814=T -8.707=T 0.8889=T -0.1169=T 1.508=T 8.13244=T -0.81815=T 5.9683636764=T 0.309140168=T pbc="F F F"
C        0.98094943       0.02415568       0.03372261
C        2.47544089       0.01120951      -0.02824006
C        3.28001221      -1.06431147      -0.07213684
C        4.74701320      -0.70849931      -0.04240346
N        5.34471950      -1.18724530       1.21983673
C        4.72539516       0.83301478      -0.29906971
C        3.27747726       1.29643441      -0.01777914
H        0.56400688      -0.99160475       0.04047542
H        0.55343341       0.56772210      -0.82475314
H        0.62954331       0.54687173       0.93881259
H        2.94151235      -2.10191145      -0.05073787
H        5.30172609      -1.22021560      -0.84818730
H        4.88581075      -0.72610863       2.01114749
H        6.33396730      -0.92693629       1.25802166
H        4.97726866       1.03115651      -1.35213193
H        5.47355009       1.35297087       0.31689898
H        2.91575193       2.01043586      -0.77622483
H        3.16709160       1.80928137       0.95510881
