17
Properties=species:S:1:pos:R:3 -1725.9923899964983=T 12.552548=T 13.66671=T -8.4416=T -6.3871=T -9.048=T 1.5729=T -0.1726=T 1.255=T 9.20624=T -0.70661=T 6.0815876916=T 6.7899569054=T 0.425732797=T pbc="F F F"
C        1.44217885       5.77939440      -0.69994444
C        2.72719737       5.00374078      -0.73129665
C        2.75730326       3.66028410      -0.71556407
O        3.84251289       2.82826295      -0.73906962
C        5.13016972       3.46913887      -0.76913026
C        6.18714139       2.41182537      -0.73598491
C        7.20676761       2.35022377      -1.59734137
H        1.38740941       6.43847975       0.18163940
H        0.57005362       5.11037871      -0.67079860
H        1.33784083       6.42604737      -1.58621298
H        3.65442370       5.57955302      -0.76915746
H        1.84001549       3.06595513      -0.68245337
H        5.21600452       4.13111313       0.11472368
H        5.22058789       4.09406873      -1.67566085
H        6.10025925       1.67928202       0.07255023
H        7.30505372       3.06783902      -2.41579745
H        7.98055047       1.58646288      -1.51125127
