15
Properties=species:S:1:pos:R:3 -1499.9298737214306=T 11.847599=T 12.11753=T -9.0686=T -7.1881=T -9.714=T 0.7871=T -0.8683=T -0.053=T 9.16967=T 0.62791=T 4.3386296994=T 5.350553837=T 0.498893132=T pbc="F F F"
C        2.42015167      -0.99086437      -1.47696387
C        3.19701254      -0.41860018      -0.28082425
C        2.68936999       0.92286220       0.14319705
N        3.44406284       1.96272751       0.09173880
N        2.90724080       3.15442461       0.48315990
C        3.65979797       4.30788376       0.44906188
O        3.23031925       5.40184949       0.78456218
H        2.78597294      -1.99506223      -1.73145256
H        2.53604337      -0.34995973      -2.36223798
H        1.34523770      -1.07265634      -1.25714545
H        4.26617460      -0.32486377      -0.51829123
H        3.11042338      -1.11449290       0.57218768
H        1.63915494       0.99194861       0.48451428
H        1.93393249       3.22472295       0.80775548
H        4.68874552       4.10759041       0.08148808
