16
Properties=species:S:1:pos:R:3 -1683.6123175455405=T 12.354685=T 13.30073=T -9.5317=T -7.5532=T -9.329=T 0.4362=T -1.2081=T 0.018=T 8.81268=T 0.52258=T 5.0124936094=T 5.1800978842=T 0.280847904=T pbc="F F F"
C        1.63434873      -0.26789355       1.53830302
C        2.33952679       0.01373220       0.20029824
C        3.02316611       1.34400127       0.19153866
C        4.33776109       1.59746448      -0.01086058
C        5.42351627       0.58602305      -0.28942593
C        4.77673285       2.96178600       0.03506728
N        5.17685563       4.06126078       0.06594307
H        1.10196445      -1.22832599       1.50094951
H        0.90032722       0.51631703       1.77510841
H        2.35881437      -0.30899591       2.36380646
H        1.58331170       0.01206715      -0.60512396
H        3.04107860      -0.79964337      -0.03181092
H        2.37651232       2.20605221       0.38561021
H        5.03611398      -0.43856198      -0.28564233
H        6.22072719       0.66113318       0.46473347
H        5.88735270       0.77969345      -1.26770461
