16
Properties=species:S:1:pos:R:3 -1639.04577765505=T 12.285077=T 13.6452=T -9.319=T -7.0918=T -9.378=T 0.8981=T -0.0788=T 2.265=T 8.99071=T -1.84705=T 4.302004235=T 9.4313298522=T 0.600344731=T pbc="F F F"
N        2.83001013      -1.05604874      -0.66435992
C        2.38355976       0.06877670       0.17604064
C        3.39055301       1.19521040       0.14960849
C        3.45640674       2.12832846      -1.02269626
C        2.90006628       2.63257525       0.30598807
C        3.64277830       3.57134695       1.09484164
C        4.27906730       4.36407463       1.76212908
H        2.14845410      -1.81670998      -0.60801208
H        3.70517861      -1.43610430      -0.29254500
H        2.18701279      -0.20585408       1.23272824
H        1.42943272       0.43463170      -0.23889705
H        4.34040692       0.98566329       0.64978205
H        2.74178241       1.97277568      -1.83164652
H        4.42853462       2.51465034      -1.32661314
H        1.81398840       2.75413833       0.34839224
H        4.83662791       5.05987539       2.35433952
