16
Properties=species:S:1:pos:R:3 -1487.779702236449=T 9.371697=T 10.10199=T -9.2136=T -6.9159=T -10.583=T 0.9598=T -0.0185=T 3.155=T 9.94279=T -2.87341=T 8.6904515092=T 11.3689954588=T 0.132491167=T pbc="F F F"
C        0.99181124      -0.01542852       0.02616396
C        2.52252288      -0.01468058      -0.04803598
C        3.02421939      -0.78768115      -1.27191563
C        3.05944526       1.42575922      -0.02539489
N        4.52945193       1.45920306       0.03551721
H        0.62656320       0.51870571       0.91652868
H        0.59809524      -1.04173539       0.06285694
H        0.55767964       0.47370086      -0.86116374
H        2.90695178      -0.51989636       0.85956193
H        2.59902668      -0.36319776      -2.19640704
H        2.72738152      -1.84558818      -1.22268099
H        4.11798294      -0.73005335      -1.34668871
H        2.56674757       1.97039472       0.80718322
H        2.75182522       1.93063541      -0.95813782
H        4.84291759       1.15417319       0.96116351
H        4.86215790       2.41891913      -0.07548065
