18
Properties=species:S:1:pos:R:3 -1783.0090155535843=T 11.891002=T 13.34337=T -8.8289=T -6.8193=T -10.422=T 1.0071=T 0.129=T 3.1=T 9.72921=T -2.67545=T 8.4080361984=T 11.289483237=T 0.287139947=T pbc="F F F"
C        1.30725592      -0.18657157       0.07099945
N        2.73828366      -0.15120859      -0.21564916
C        3.10865142      -0.41828397      -1.60914321
C        3.19319297       0.96801181      -1.05427008
C        4.46728144       1.67322979      -0.70467505
C        5.80752035       0.98501016      -0.73945421
C        5.46584101       2.01219616      -1.79234388
H        1.09992927       0.43091587       0.95739311
H        1.00690800      -1.22078977       0.29584915
H        0.68106351       0.18361090      -0.76747598
H        2.30312286      -0.61241159      -2.32676445
H        4.00681356      -1.02428578      -1.75069272
H        2.39686478       1.63974528      -1.40624079
H        4.34660470       2.42806539       0.07790962
H        5.84406017      -0.06259889      -1.03745812
H        6.52992062       1.25574184       0.03054025
H        5.96228045       2.98229554      -1.75788811
H        5.24685533       1.64755742      -2.79727583
