17
Properties=species:S:1:pos:R:3 -1794.297793696565=T 17.167436=T 15.52856=T -7.7814=T -5.9548=T -7.697=T 0.0616=T -1.3575=T -0.235=T 7.16568=T 0.87463=T 4.2046380292=T 1.170477703=T pbc="F F F"
C        0.71157332       2.09418298      -0.57608502
C        2.05048088       1.45703882      -0.39713386
C        3.19118587       2.11501476      -0.08904821
C        4.47626258       1.48331799       0.08170055
C        5.62452345       2.14349223       0.39148705
C        6.90879413       1.50594949       0.55863450
C        8.05312742       2.15494419       0.86143058
H       -0.02559368       1.67662422       0.12953010
H        0.31138312       1.90445418      -1.58580074
H        0.75430414       3.18146127      -0.42329363
H        2.09846037       0.36927523      -0.52821384
H        3.15310517       3.20350988       0.04378950
H        4.51636670       0.39515217      -0.05082643
H        5.58883824       3.23152606       0.52438769
H        6.93507352       0.41818888       0.42542451
H        8.07004150       3.23827682       1.00213802
H        8.99753327       1.62335084       0.97579923
