16
Properties=species:S:1:pos:R:3 -1676.5572282003875=T 11.007688=T 11.55864=T -8.8647=T -6.7993=T -8.664=T 0.9081=T -0.0094=T 1.385=T 8.15406=T -0.7491=T 5.7263306058=T 0.217627887=T pbc="F F F"
C        0.37287909       1.56691856       0.56348460
C        1.40919394       0.54316331       0.02098928
C        0.49814454      -0.39027504      -0.86326438
N       -0.51014845       0.54825687      -1.42795792
C       -0.95948949       1.04963323      -0.10013125
C       -1.26923843      -0.26861824       0.58675490
C       -0.37423594      -1.15280668       0.11807080
H        0.59455773       2.58779385       0.21786162
H        0.31668180       1.58863411       1.66068405
H        1.93256787      -0.00763499       0.81482174
H        2.16943445       1.03209884      -0.60651087
H        1.02820780      -0.97904148      -1.62147331
H       -0.02124216       1.30567592      -1.92319515
H       -1.77052166       1.78555650      -0.15626989
H       -1.99643386      -0.40240654       1.38587545
H       -0.20054723      -2.17646825       0.44557032
