17
Properties=species:S:1:pos:R:3 -1679.4176655166407=T 11.497228=T 12.01183=T -7.7526=T -5.8174=T -8.586=T 0.9581=T -0.027=T 0.794=T 7.99611=T -0.16926=T 4.8572631374=T 11.172750418=T 0.143782779=T pbc="F F F"
C        1.10813245       0.20805803      -0.02072676
C        2.61381818      -0.07981701       0.03411855
C        3.00877665      -1.29294015      -0.83627374
C        3.45418066      -0.59063994      -2.09663899
N        3.68641510       0.66955207      -1.92059049
N        3.45321180       0.98702891      -0.59147954
C        3.14164021       2.38652365      -0.35379359
H        0.84096160       1.10431341       0.55585393
H        0.55546308      -0.63995744       0.40881026
H        0.76908251       0.34811725      -1.05774095
H        2.93107239      -0.20596041       1.08049322
H        2.18076463      -2.00106457      -0.98447376
H        3.85261693      -1.85352776      -0.39560441
H        3.66351927      -1.05648332      -3.05836330
H        3.16133957       2.57819704       0.72830772
H        2.16005937       2.70266673      -0.75403163
H        3.92052562       2.99503353      -0.82899651
