17
Properties=species:S:1:pos:R:3 -1752.022396932818=T 12.023033=T 13.07204=T -8.974=T -6.9037=T -9.349=T 0.9332=T -0.7856=T 0.099=T 8.86904=T 0.59659=T 3.7148189376=T 11.9463982608=T 0.267336466=T pbc="F F F"
C        0.69367256       1.20036753       1.09576848
C        2.19077671       1.16218443       1.07126563
C        2.95208471       1.47715267       0.01343880
C        4.45783806       1.44867127      -0.00761991
C        5.00125233       2.86498069      -0.24497472
C        5.18745123       3.72793170       0.98462013
O        5.24393866       3.26859751      -1.37221759
H        0.27444794       0.20658614       1.32075416
H        0.28163909       1.53712374       0.13458121
H        0.32690924       1.87852161       1.88313417
H        2.68538605       0.83787045       1.99582389
H        2.47206913       1.79971264      -0.91792476
H        4.81881274       0.82271749      -0.83785627
H        4.83947113       1.04640787       0.94368285
H        4.30563368       3.66697249       1.63851931
H        5.38088673       4.76672144       0.69592927
H        6.04337000       3.34771033       1.56462533
