19
Properties=species:S:1:pos:R:3 -1832.19872615072=T 12.188748=T 13.28063=T -8.5475=T -6.6259=T -9.439=T 0.711=T -0.2383=T 1.202=T 8.62527=T -0.55578=T 5.0178250074=T 11.246708067=T 0.15845016=T pbc="F F F"
C        0.86731807       1.41474244       0.18283257
N        2.27526326       1.08666385       0.28535421
C        3.23430770       1.69091611      -0.50491476
N        3.01899331       2.49456998      -1.49248674
C        4.67477601       1.31960926      -0.15226542
C        5.35716772       0.63482835      -1.34498699
C        5.45102492       2.56745046       0.29406229
H        0.31130568       0.83653197       0.93012483
H        0.47285058       1.14796632      -0.81082033
H        0.67224514       2.48835514       0.35541202
H        2.59268738       0.62483943       1.13066428
H        2.01744942       2.67824983      -1.62658333
H        4.65011352       0.60313697       0.68941091
H        5.36882722       1.31673993      -2.20629777
H        4.82185476      -0.27847242      -1.64212551
H        6.39244197       0.36149803      -1.09300062
H        5.46512806       3.30557820      -0.51971599
H        6.48738903       2.30541323       0.55328946
H        4.98720625       3.03990290       1.17240690
