17
Properties=species:S:1:pos:R:3 -1674.8561545203981=T 10.991503=T 11.86605=T -8.5041=T -6.3819=T -10.029=T 0.8281=T -0.1134=T 3.033=T 9.41192=T -2.78692=T 8.1499345422=T 12.2603928058=T 0.07993745=T pbc="F F F"
N        1.05430865      -0.02620510       0.00492848
C        2.51235467      -0.01420493      -0.00957118
C        3.12160796       1.04136184      -0.99477268
C        2.78052446       0.03761717      -2.13961672
C        3.16868066      -0.98803234      -1.04784742
N        4.62478015      -0.73639112      -0.90392828
C        4.61991238       0.77175155      -0.81013617
H        0.69981740       0.78261669       0.52151752
H        0.71571980      -0.85509199       0.49934755
H        2.98594499      -0.04029502       0.99572418
H        2.78561681       2.08695564      -1.00430877
H        3.40249686       0.05585092      -3.04494582
H        1.71090410       0.02045606      -2.36644691
H        2.91223178      -2.05415483      -1.10953937
H        4.94474524      -1.12319408      -0.01075678
H        5.23332227       1.21472342      -1.61060290
H        5.00027183       1.13011612       0.16005525
