13
Properties=species:S:1:pos:R:3 -1402.29213950679=T 10.130825=T 10.76878=T -9.5347=T -7.5858=T -10.584=T -0.4017=T -2.1381=T -0.81=T 9.6319=T 1.44294=T 3.500496738=T 5.5690667634=T 0.385068854=T pbc="F F F"
C        1.03504236      -0.08713893      -0.01632477
C        2.30914363       0.03317773       0.38420935
C        3.32222354       0.69918113      -0.48099222
O        3.07761719       1.14412839      -1.59956161
C        4.71831641       0.84194318       0.06772214
C        4.93393179       1.42143825       1.41571661
O        5.11149374       0.02056459       1.18832873
H        0.28327537      -0.57817842       0.60191770
H        0.72965432       0.30817544      -0.98776520
H        2.65108637      -0.36761101       1.34062932
H        5.48506575       1.00209657      -0.69695012
H        4.06738651       1.69503647       2.02772031
H        5.85000302       1.99465658       1.59115977
