14
Properties=species:S:1:pos:R:3 -1387.5053639961748=T 9.988741=T 10.8353=T -8.9815=T -6.8814=T -10.571=T 1.1465=T 0.1084=T 0.352=T 10.10351=T 0.19=T 5.6208309184=T 11.9249610814=T 0.240878435=T pbc="F F F"
O        1.62463082       1.77970309       1.52319201
N        2.88561868       2.19079717       0.99128751
C        2.84863638       2.13101919      -0.28933867
O        3.90982098       2.44494966      -1.06951701
C        5.09133736       2.85768612      -0.38013140
C        6.08339868       3.59500161      -1.21796727
C        5.29819526       4.32362652      -0.13889085
H        1.77788347       1.88709259       2.47802086
H        1.97773839       1.81674864      -0.87337042
H        5.42154441       2.13934298       0.37237292
H        5.79962341       3.79098926      -2.25213550
H        7.14136802       3.38719584      -1.05907825
H        5.80211485       4.62297351       0.78016297
H        4.50415928       4.99156382      -0.47223689
