16
Properties=species:S:1:pos:R:3 -1655.1559887717076=T 11.39166=T 12.1082=T -8.7616=T -6.6057=T -8.379=T 1.5359=T -0.0184=T 1.301=T 7.93109=T -0.6261=T 5.2892675572=T 11.9373844786=T 0.188089171=T pbc="F F F"
N        0.83426533      -0.33240216      -0.67095812
C        2.03469295      -0.23946435       0.13130301
C        2.56624290      -1.49055980       0.91612246
C        3.89201825      -0.65448974       0.88865917
C        3.44854700      -0.21913749      -0.55055579
C        3.46497733       0.57787776       1.69987296
C        2.24639689       0.85666901       1.20879365
H        0.01628459      -0.44748838      -0.06579913
H        0.69120043       0.53837595      -1.19037741
H        2.60202141      -2.39149455       0.28576079
H        2.12159671      -1.69768740       1.90008268
H        4.87063246      -1.10473935       1.08711507
H        3.81865796       0.74762353      -0.92091941
H        3.55765324      -1.01416966      -1.30311272
H        4.04193924       1.07545381       2.47745712
H        1.54076333       1.64510281       1.46725568
