20
Properties=species:S:1:pos:R:3 -1934.5793000991664=T 12.584363=T 14.18425=T -8.6252=T -6.4932=T -9.859=T 0.9778=T 0.1006=T 3.23=T 9.18089=T -2.89644=T 8.0179514452=T 11.418552663=T 0.174588853=T pbc="F F F"
C        2.76775578      -1.18011171      -0.71224138
C        2.37175941       0.03371186       0.13438616
C        3.42264320       1.12424968       0.13169710
C        3.49437014       2.12179482      -1.00692894
C        3.05393373       2.57114173       0.36557158
N        3.96478838       3.38705635       1.12939380
C        3.68482589       3.36581999       2.56562428
H        1.98610425      -1.95342164      -0.69671191
H        3.69733749      -1.63626271      -0.33877544
H        2.93900487      -0.89120728      -1.76006907
H        2.18013538      -0.28650573       1.17336872
H        1.41966456       0.44888541      -0.23805762
H        4.39412141       0.84315090       0.54939378
H        2.73603963       2.06188690      -1.78994839
H        4.48174326       2.44697509      -1.33556200
H        1.97508651       2.76633611       0.48874504
H        3.92921884       4.34964819       0.78486201
H        3.85891134       2.35069814       2.95307520
H        2.64566337       3.65267178       2.83106047
H        4.37456256       4.04583210       3.08489662
