19
Properties=species:S:1:pos:R:3 -1815.0554871444187=T 11.892082=T 12.9529=T -8.9824=T -6.8496=T -10.137=T 0.7812=T -0.2106=T 2.953=T 9.57258=T -2.57939=T 8.083019298=T 12.2644347494=T 0.160346706=T pbc="F F F"
C        2.83246588      -1.30657296      -0.47018808
C        2.25909441      -0.06359750       0.22844000
N        1.73887880      -0.32439850       1.58647804
C        3.27951042       1.08074160       0.28577802
N        4.45395075       0.92153416       1.12316453
C        3.48690508       1.89053615      -0.97412463
C        2.75347963       2.49088182       0.20844219
H        3.18110842      -1.07456667      -1.48841869
H        2.07398009      -2.10000040      -0.54122337
H        3.68539287      -1.71747187       0.09476822
H        1.40290627       0.30105059      -0.36527634
H        2.45238934      -0.82572510       2.12606763
H        0.94460662      -0.96645476       1.52707960
H        4.17832830       0.83532120       2.10509766
H        4.98447455       0.08499611       0.86709035
H        2.90621656       1.62536721      -1.85949201
H        4.49923713       2.24490841      -1.16803754
H        3.28116101       3.24447977       0.79250671
H        1.67355389       2.62481072       0.13800770
