12
Properties=species:S:1:pos:R:3 -1384.237223112463=T 12.356875=T 13.25596=T -9.3969=T -7.4144=T -8.999=T -0.4532=T -2.076=T -0.47=T 8.55633=T 1.0712=T 3.8184092406=T 10.6191281308=T 0.639207142=T pbc="F F F"
C        0.96606042       0.05063944       0.00004679
C        2.41540968      -0.01111294       0.00008441
C        3.63192921      -0.06899180       0.00005024
C        5.05583232      -0.08852052       0.00001314
C        5.80330120      -1.21954922      -0.00010488
C        5.70929101       1.19605676       0.00011166
N        6.23123759       2.24149391       0.00019023
H        0.61905175       1.09384320       0.01130791
H        0.55012543      -0.45624513       0.88329606
H        0.55112562      -0.43657346      -0.89469230
H        5.32083667      -2.19551534      -0.00018638
H        6.89056909      -1.16832491      -0.00011688
