17
Properties=species:S:1:pos:R:3 -1674.2011383720478=T 12.191956=T 12.3718=T -7.7717=T -5.8839=T -8.444=T 0.8653=T -0.061=T 0.844=T 7.71003=T -0.28467=T 4.6939363796=T 4.9847083468=T 0.309026493=T pbc="F F F"
C        1.44416994      -0.12380973       0.53792536
N        2.57829050       0.06712880      -0.06149140
N        2.98623538       1.30555134      -0.35596860
C        2.39754031       2.53112514       0.20104183
C        3.49279330       3.59389878      -0.00220661
C        4.41839198       2.99333701      -1.07850420
C        4.38008257       1.49890381      -0.76385283
H        1.16068099      -1.15977880       0.72226582
H        0.75648809       0.67437495       0.84411945
H        2.14821747       2.38482071       1.26939788
H        1.45866153       2.77910814      -0.32508380
H        3.08149136       4.57082337      -0.28892303
H        4.05357765       3.73165225       0.93458662
H        4.00709938       3.17428656      -2.08349672
H        5.43426450       3.40811010      -1.04399942
H        4.61021826       0.85434315      -1.62270130
H        5.07907679       1.24450443       0.05735094
