11
Properties=species:S:1:pos:R:3 -1262.1421007160804=T 11.258912=T 12.3547=T -9.9432=T -7.7018=T -9.706=T 1.2126=T -0.5366=T 1.506=T 9.47635=T -1.29295=T 4.3600172844=T 11.1146505784=T 0.79609293=T pbc="F F F"
C        0.97300849      -0.03729282      -0.09269019
C        2.18360084       0.03321698      -0.04031945
C        3.61445233       0.12090127       0.05197539
O        4.40059010      -0.57637868      -0.94110047
C        4.40846606       0.86908427      -0.97299212
C        5.62642316       1.54440152      -0.62105254
C        6.64444803       2.14293699      -0.34068591
H       -0.09476184      -0.10218627      -0.14693297
H        4.03410013       0.07841648       1.06302207
H        3.84642404       1.29918601      -1.80927634
H        7.54950866       2.65856425      -0.09112747
