16
Properties=species:S:1:pos:R:3 -1679.9734274968948=T 12.046805=T 13.47384=T -9.8226=T -7.732=T -9.495=T 1.1784=T -0.3868=T 0.797=T 8.94779=T -0.24816=T 5.3582781648=T 6.2535686722=T 0.386506081=T pbc="F F F"
C        1.75559701      -0.70883787      -1.00869298
C        2.87619460      -0.27260839      -0.05229619
C        3.00288884       1.21869523       0.04362324
C        4.09770880       1.92113393      -0.26949919
C        4.19351759       3.42505357      -0.15228491
C        4.54224661       4.06879681      -1.42088130
N        4.82803417       4.57002732      -2.43468273
H        1.66739333      -1.80393969      -1.03467353
H        1.95252213      -0.35598395      -2.03090900
H        0.78311334      -0.30111976      -0.69473190
H        3.83718653      -0.70569631      -0.37179177
H        2.66595573      -0.67932333       0.95266407
H        2.10944336       1.75799131       0.38579019
H        4.99597239       1.40861750      -0.62835202
H        4.96507318       3.70965841       0.58410413
H        3.24062240       3.84664522       0.20318389
