14
Properties=species:S:1:pos:R:3 -1337.2694316393222=T 8.624575=T 9.21467=T -8.787=T -6.5219=T -10.207=T 0.9703=T 0.0134=T 3.236=T 9.54402=T -2.96541=T 8.379407831=T 14.6072618068=T 0.200623314=T pbc="F F F"
C        0.92299533      -0.01999230       0.23541505
C        2.40588640       0.02490068      -0.11034502
C        3.23248770       1.05020984       0.71581256
N        3.62795185      -0.04960904       1.63678810
C        3.26778990      -1.05589752       0.60118855
H        0.43451706      -0.89074548      -0.22779834
H        0.40506874       0.88321093      -0.12117746
H        0.78047501      -0.08770818       1.32408362
H        2.54880748       0.08694656      -1.19829200
H        2.67715668       1.87091838       1.19908460
H        4.06575517       1.47763908       0.12803343
H        4.61030061      -0.04840762       1.91817189
H        4.11373955      -1.39043747      -0.02770246
H        2.73997851      -1.94162786       0.99230749
