15
Properties=species:S:1:pos:R:3 -1471.9389288427608=T 10.263597=T 10.60062=T -9.1699=T -7.2299=T -10.433=T 0.9033=T -0.5554=T 0.45=T 9.95847=T 0.15458=T 5.0291945236=T 6.4453254198=T 0.208701808=T pbc="F F F"
N        0.97598829       0.16547909      -0.26571834
C        2.38419494       0.04972735       0.16934540
C        3.16038588       1.31424855      -0.21632372
C        3.51019362       1.19172210      -1.68752066
O        4.38307534       0.05752113      -1.92630511
N        3.98001010      -1.15341343      -1.36856526
C        3.04814812      -1.14107958      -0.47496714
H        0.44320433       0.69238111       0.43182915
H        0.54339950      -0.75947164      -0.32752971
H        2.47442151      -0.11582265       1.26257291
H        2.54791475       2.21077370      -0.04082657
H        4.07797274       1.40062285       0.38597651
H        4.07450940       2.04845043      -2.07649128
H        2.58707359       1.05097463      -2.27689884
H        2.79606789      -2.14307366      -0.11091732
