17
Properties=species:S:1:pos:R:3 -1629.8333835405851=T 11.363414=T 11.97076=T -8.3434=T -6.3441=T -9.547=T 1.6113=T 0.0083=T 1.369=T 9.03011=T -0.80606=T 6.6953927832=T 0.410378894=T pbc="F F F"
C        0.94247067      -0.64280212       0.25936240
N        2.21908703      -0.30208755      -0.36279324
C        2.70161833      -1.40338879      -1.18800579
C        2.12485489       0.93696475      -1.14309800
C        1.90921822       2.14795966      -0.28060930
C        0.95182373       3.06163252      -0.47320235
H        0.59830352       0.18881238       0.88827754
H        1.06886097      -1.53034852       0.89586922
H        0.14600400      -0.86204514      -0.48873387
H        2.81493340      -2.30548330      -0.56954855
H        3.68551666      -1.15175523      -1.60959599
H        2.01543045      -1.65034738      -2.03048991
H        1.32899679       0.88176130      -1.92331459
H        3.08519428       1.05417978      -1.67564377
H        2.61902852       2.26477946       0.54592738
H        0.22495640       2.96285218      -1.28387781
H        0.86468215       3.94147600       0.16603663
