17
Properties=species:S:1:pos:R:3 -1767.9924895795104=T 12.422265=T 13.77284=T -9.7672=T -7.4449=T -9.65=T 0.9263=T 0.0271=T 2.396=T 9.25773=T -1.9631=T 4.328909197=T 10.4032685048=T 0.240365858=T pbc="F F F"
C        0.90191599      -0.00219004       0.06615512
C        2.42048641       0.00802341       0.02932809
C        3.18581937       1.06273510       0.87512742
C        4.24716286      -0.03250646       1.24172038
C        3.19861714      -1.10505128       0.78357243
C        5.45266226       0.00893263       0.43460972
C        6.45898077       0.04062377      -0.24649120
H        0.49402094      -0.87059661      -0.47344087
H        0.48412198       0.90390979      -0.39878174
H        0.53371732      -0.04780003       1.10344805
H        2.77413246       0.05413641      -1.01317890
H        2.61406944       1.35560116       1.76873277
H        3.55792637       1.96276016       0.36936651
H        4.52299897      -0.07564681       2.30625763
H        3.58104104      -1.95480448       0.20409398
H        2.63084227      -1.47855861       1.64914935
H        7.34674440       0.07228188      -0.84402874
