15
Properties=species:S:1:pos:R:3 -1626.5922390689582=T 11.063921=T 11.80532=T -9.1618=T -7.112=T -9.661=T 0.7433=T -0.9425=T 0.259=T 9.615=T 0.53823=T 3.7385002636=T 6.3972064532=T 0.403353912=T pbc="F F F"
C        1.01362191      -0.00736933      -0.00283206
C        2.35063058      -0.00589883       0.02359297
C        3.23926880       1.22551989       0.06894607
C        4.45752658       0.84738911      -0.79213396
C        4.54091737      -0.68151904      -0.72876569
O        5.46774119      -1.36118206      -1.12494219
C        3.25220070      -1.21010979      -0.08297321
H        0.44261593      -0.93565523      -0.06105207
H        0.44658109       0.92478275       0.03846087
H        3.56404648       1.40433328       1.10911045
H        2.71700262       2.12953406      -0.27079933
H        4.29433295       1.10989759      -1.85109422
H        5.41021865       1.30240691      -0.49117692
H        2.83955968      -2.06158795      -0.64017528
H        3.53457547      -1.58885136       0.91719457
