13
Properties=species:S:1:pos:R:3 -1407.1053214708886=T 11.530383=T 11.17454=T -9.1775=T -7.2475=T -9.023=T -0.423=T -2.0761=T -0.537=T 8.57576=T 1.12032=T 4.542475082=T 11.2490390038=T 0.406229876=T pbc="F F F"
C        2.80002522      -1.21987305       0.35463388
C        2.30406200       0.00894967       0.12162100
C        3.09299685       1.22204742       0.02844045
N        2.52238707       2.37787783      -0.20225118
N        3.53121875       3.39640290      -0.24351236
C        4.68268375       2.83995628      -0.03813646
C        4.58317023       1.36418579       0.16743798
H        2.14494630      -2.08890839       0.41159421
H        3.86828527      -1.39752054       0.49486565
H        1.22989422       0.15774920      -0.01515914
H        5.59893288       3.43253191      -0.02673001
H        5.14471918       0.79202768      -0.58874176
H        4.95819828       1.04708330       1.15396774
