15
Properties=species:S:1:pos:R:3 -1470.461652057894=T 9.854721=T 10.42462=T -9.6223=T -7.3591=T -9.443=T 0.9952=T 0.1122=T 1.4=T 8.89917=T -0.83436=T 6.6519976832=T 0.447840211=T pbc="F F F"
C        0.87733344      -0.07540829      -0.08177695
C        2.41106981       0.02094665      -0.00058948
C        3.07039726      -0.79411118      -1.12721887
C        2.85782451       1.45818978      -0.05143294
C        3.52708016       2.09803405       0.91389770
H        0.39976125       0.48150935       0.73648663
H        0.54826490      -1.12393549      -0.02468904
H        0.50869773       0.33961907      -1.03358386
H        2.73484117      -0.40004273       0.96798244
H        2.77786005      -0.40417818      -2.11537702
H        2.76056243      -1.84891603      -1.07911632
H        4.16651126      -0.75263157      -1.05932276
H        2.59768161       2.00073742      -0.97060369
H        3.80434069       1.59262754       1.84341485
H        3.82148376       3.14378959       0.81269932
