17
Properties=species:S:1:pos:R:3 -1701.3876749598276=T 10.294051=T 11.43102=T -9.7271=T -7.4975=T -11.501=T 0.8564=T -0.152=T 2.712=T 11.22696=T -2.43072=T 9.1181908106=T 10.413398161=T 0.085393655=T pbc="F F F"
O        1.08648196       0.03986714      -0.26499387
C        2.49244177       0.01001509      -0.04477442
C        2.95347762       1.17801898       0.82512191
C        4.31523804       0.71434490       1.41872530
C        4.40274061      -0.81621078       1.15763881
C        2.98406234      -1.21748741       0.73541960
O        2.85521403      -2.45140960       0.02235779
H        0.84771184      -0.82178458      -0.65434099
H        3.03170290       0.02951622      -1.01884349
H        2.20317554       1.32393324       1.61752760
H        3.02432734       2.11972929       0.26525204
H        5.15792414       1.23776048       0.94632197
H        4.36871820       0.94073036       2.49247099
H        5.09465240      -1.02528438       0.32305203
H        4.76232584      -1.38963937       2.02196904
H        2.33278636      -1.33682938       1.61843719
H        3.52221906      -2.44711019      -0.68942149
