15
Properties=species:S:1:pos:R:3 -1505.4249328419708=T 11.414853=T 12.57926=T -9.4917=T -7.2538=T -9.724=T 0.9167=T -0.1266=T 2.305=T 9.34086=T -1.88533=T 4.3883480854=T 11.1117865018=T 0.29974481=T pbc="F F F"
N        1.14495249       0.24072219      -0.00362511
C        2.59342915      -0.04848292      -0.07616418
C        2.88442487      -0.82736142      -1.28206799
C        3.12119300      -1.47847074      -2.27821049
C        3.35333776       1.27498132      -0.08553295
C        3.70384424       1.96112402       1.18838328
N        4.73522411       1.23384992       0.41516584
H        0.92746825       0.60210431       0.92873461
H        0.61861946      -0.62828678      -0.11826429
H        2.98131169      -0.62885913       0.78713115
H        3.33049318      -2.05051022      -3.15892104
H        3.12043685       1.90834662      -0.94668612
H        3.45253003       1.49745286       2.14669843
H        3.70791593       3.05392592       1.19349802
H        5.31530899       1.89398406      -0.11044914
