18
Properties=species:S:1:pos:R:3 -1816.0826974764748=T 12.090473=T 12.75587=T -8.4729=T -6.3983=T -8.915=T 0.8971=T -0.0457=T 1.489=T 8.40567=T -0.83963=T 6.2091072926=T 0.354046168=T pbc="F F F"
C        0.96401040       0.12621931      -0.05162748
C        2.48930034      -0.02939806       0.12844195
N        3.27284201       1.14566380      -0.29525122
C        3.49753332       1.20587599      -1.74404968
C        4.39122196       0.03624178      -2.15906877
C        3.87380454      -1.24850505      -1.57427483
C        2.99852987      -1.26977451      -0.55933064
H        0.59072035       0.97680901       0.53929442
H        0.42981063      -0.77498963       0.28565608
H        0.70708979       0.29154448      -1.10801927
H        2.68006528      -0.16055537       1.21108854
H        2.80004757       1.99504361       0.01955176
H        3.98433192       2.16509239      -1.97494967
H        2.56022576       1.16201615      -2.34080002
H        5.42757761       0.21278127      -1.82044629
H        4.42867529      -0.03550943      -3.25893653
H        4.22696140      -2.18933085      -2.00607435
H        2.61932194      -2.22150490      -0.17698400
