17
Properties=species:S:1:pos:R:3 -1671.8796267627597=T 10.557978=T 11.79418=T -9.5802=T -7.4136=T -11.336=T 0.8803=T -0.1047=T 2.789=T 10.82492=T -2.56875=T 9.0274330586=T 11.4437094224=T 0.139783714=T pbc="F F F"
C        1.91202260      -0.49158819      -1.20868047
O        2.18220113       0.09378153       0.06028653
C        3.03850863       1.21512037      -0.04060011
C        2.45275452       2.56297229      -0.56370304
C        3.15315276       3.28174614       0.62794903
O        4.35782106       3.97794039       0.30742860
C        3.33661917       1.89532425       1.31108717
H        1.26127721      -1.35699918      -1.03284957
H        2.84334234      -0.83224136      -1.69966531
H        1.39641581       0.21527372      -1.88400761
H        3.96038887       0.92876372      -0.58734739
H        1.35798932       2.57473340      -0.45614519
H        2.72778751       2.90871921      -1.56969244
H        2.54515960       4.01395031       1.17429583
H        4.95843350       3.36238015      -0.14938437
H        4.30569306       1.70192131       1.79085994
H        2.52865291       1.68176193       2.02533840
