21
Properties=species:S:1:pos:R:3 -2067.540098106723=T 12.928063=T 14.77641=T -9.597=T -7.413=T -10.798=T 0.951=T 0.0908=T 3.18=T 10.41224=T -2.84733=T 8.8580681826=T 11.9734148102=T 0.217161704=T pbc="F F F"
C        2.91674334      -1.09007995      -0.66947840
C        2.38699616       0.14669215       0.06479646
C        3.37566966       1.29559790       0.08228308
C        3.49829234       2.30507962      -1.05221393
C        2.63286147       2.26478879      -2.29309918
C        2.93675559       2.72941629       0.28861810
C        3.70035201       3.66227457       1.20156524
H        2.19185967      -1.91667009      -0.64015123
H        3.85182217      -1.44975414      -0.21314844
H        3.13025199      -0.86377883      -1.72461909
H        2.13775974      -0.12283530       1.10607345
H        1.43868994       0.47139980      -0.39306216
H        4.33000115       1.03867554       0.55740543
H        4.52279989       2.64328868      -1.24108921
H        1.60988581       1.92934811      -2.07157349
H        3.04733869       1.58719828      -3.05597944
H        2.55562583       3.26553648      -2.74580540
H        1.84969568       2.87122775       0.29625645
H        4.78229774       3.46841572       1.14455603
H        3.39616286       3.53787996       2.25272795
H        3.53758826       4.71678868       0.92842776
