16
Properties=species:S:1:pos:R:3 -1634.3205617342128=T 12.706339=T 14.46678=T -8.7939=T -6.7235=T -9.047=T 0.8978=T 0.045=T 2.354=T 8.64976=T -1.85768=T 4.13617296=T 9.3886910668=T 0.247442096=T pbc="F F F"
C        0.96225308       0.02096447       0.00335019
C        2.41668509       0.01238627       0.00570255
C        3.63337678       0.01100077      -0.00396026
C        5.07030839      -0.00800487       0.00563094
C        5.88123545      -0.77508504      -1.00521245
N        5.79869276       0.67966976      -1.08681712
C        6.99461952       1.40363409      -0.66360446
H        0.57004044       1.04544448      -0.08618355
H        0.56202699      -0.41042155       0.93333549
H        0.56207429      -0.56622612      -0.83709004
H        5.53060316       0.06062297       1.00005400
H        5.36297084      -1.32385575      -1.79414473
H        6.81364188      -1.22369084      -0.64268631
H        6.70873975       2.41402743      -0.33834782
H        7.67582690       1.49666547      -1.52201892
H        7.54203467       0.90754847       0.16432249
