15
Properties=species:S:1:pos:R:3 -1550.6912614835114=T 14.875553=T 13.28517=T -7.8225=T -6.0341=T -8.046=T 0.3577=T -1.1559=T 0.011=T 7.50843=T 0.48079=T 4.4795397884=T 0.836662087=T pbc="F F F"
C        2.82055490      -1.67392970      -0.19526061
C        3.64794620      -0.68747578       0.20900016
C        3.40189843       0.72387149       0.03438183
C        4.26789149       1.68183947       0.44774873
N        4.07282201       3.04345515       0.29889109
C        4.93967873       4.05647813       0.70718289
N        6.07946059       3.98889145       1.28971305
H        3.06741306      -2.72243541      -0.03312326
H        1.87617310      -1.45511480      -0.69892640
H        4.58488837      -0.95755658       0.70983756
H        2.46825777       1.01782272      -0.45880000
H        5.20189695       1.40429698       0.93991637
H        3.21264258       3.34278546      -0.15441241
H        4.53297199       5.04811685       0.46786454
H        6.37711384       3.02094457       1.47159645
