14
Properties=species:S:1:pos:R:3 -1431.406686512927=T 11.58287=T 12.55486=T -9.661=T -7.5468=T -10.051=T 1.3507=T -0.4365=T 0.36=T 9.63898=T 0.25439=T 4.3726018634=T 10.7437340608=T 0.816087047=T pbc="F F F"
O        0.72636539       1.05744699      -0.70760772
N        2.10327201       0.93892906      -1.02181968
C        2.83500807       1.23403039      -0.01112662
C        4.32386578       1.17630662      -0.13543907
C        4.97515365       2.56880145       0.06068496
C        6.42981155       2.52068208       0.00794478
C        7.64077057       2.45280246      -0.04087418
H        0.30734775       0.79990077      -1.54864396
H        2.37978443       1.53866282       0.94338885
H        4.59157167       0.77307166      -1.12141278
H        4.72914892       0.49077636       0.62678577
H        4.66020073       2.99316844       1.02913659
H        4.60059763       3.25575257      -0.71568439
H        8.70959185       2.40190832      -0.08410253
