14
Properties=species:S:1:pos:R:3 -1417.8984558504108=T 9.675835=T 10.3425=T -9.0605=T -6.9053=T -10.48=T 0.6298=T -1.264=T -0.24=T 10.17089=T 0.86737=T 3.6704319496=T 7.5650553844=T 0.116354272=T pbc="F F F"
O        0.86832838       0.02013354       0.25192792
C        2.26291051      -0.07418893       0.05994223
C        3.08298688       1.00981625       0.78267342
N        3.95409342      -0.01676796       1.44020842
C        3.08681288      -1.10855694       0.94254546
C        3.74591690      -2.19432000       0.15521706
O        4.91053619      -2.15950807      -0.21254780
H        0.41653743      -0.50747134      -0.42864785
H        2.52190265      -0.16256472      -1.00821045
H        2.47403673       1.55124380       1.52358858
H        3.59947908       1.73536029       0.13785070
H        4.86549408      -0.09254586       0.97496715
H        2.44451974      -1.54463093       1.72901793
H        3.07931511      -3.05130913      -0.12306278
