15
Properties=species:S:1:pos:R:3 -1522.850826287903=T 10.70355=T 11.82883=T -9.7888=T -7.5605=T -9.982=T 0.9939=T -0.1108=T 1.973=T 9.59508=T -1.63908=T 4.3764454294=T 10.6862169554=T 0.254241648=T pbc="F F F"
C        0.89185319      -0.00340038       0.06962525
C        2.41015616      -0.02118086      -0.04183085
O        2.85764513      -0.65580130      -1.24348886
C        3.00144281       1.41619510       0.06381974
O        2.55337519       2.07317574       1.26666932
C        4.45862094       1.41128766      -0.02542384
C        5.67243770       1.41786034      -0.00936232
H        0.57279317       0.47375665       1.00497270
H        0.50189699      -1.02914250       0.03622869
H        0.44861267       0.56517356      -0.76536901
H        2.84351507      -0.62007227       0.77614458
H        2.33572540      -0.29280857      -1.98229494
H        2.58918781       2.01012590      -0.77422049
H        3.25611327       1.95788649       1.93089492
H        6.74342450       1.41862443      -0.01790489
