16
Properties=species:S:1:pos:R:3 -1617.4181633213127=T 11.009162=T 11.72473=T -8.9062=T -6.6664=T -9.003=T 1.0534=T -0.0856=T 1.314=T 8.57262=T -0.70787=T 6.0745452868=T 0.304944713=T pbc="F F F"
N        2.41154771      -0.41150671      -1.49573583
C        2.40332102       0.11195707      -0.12156008
C        3.34536605       1.32167971      -0.02067979
O        3.48323913       1.71262047       1.36338075
C        3.22423015       3.12310661       1.49688355
C        2.77882784       3.57251630       0.13749505
C        2.85687197       2.55484393      -0.72489815
H        1.65503435      -1.08724345      -1.61564895
H        3.28010786      -0.92452099      -1.66837968
H        2.70714210      -0.61511746       0.65566360
H        1.38279821       0.44556668       0.12123252
H        4.34181623       1.01408263      -0.40957206
H        4.14432722       3.64434926       1.83000534
H        2.45532718       3.27910942       2.27651786
H        2.44966388       4.58811265      -0.08103878
H        2.60605909       2.56156387      -1.78389536
