14
Properties=species:S:1:pos:R:3 -1429.255472201337=T 10.766815=T 10.7213=T -7.6921=T -5.8315=T -8.746=T 0.3147=T -1.3454=T -0.698=T 8.28559=T 1.40411=T 3.4086479092=T 3.9106796218=T 0.244811774=T pbc="F F F"
C        2.92215201      -0.45023263      -0.56796748
O        2.36899056       0.82316082      -0.27690964
C        3.26851290       1.86922326      -0.11804626
C        2.62919041       3.14295939       0.10538273
O        3.23164409       4.21815364       0.29170768
C        4.64134624       1.74746695      -0.18369270
N        5.48513425       2.79085749       0.04290313
H        2.07381061      -1.13773015      -0.66358170
H        3.58407875      -0.80237185       0.24466506
H        3.49008718      -0.44042436      -1.51663309
H        1.51492916       3.11169463       0.09075014
H        5.11251682       0.78737690      -0.39856375
H        5.03259526       3.70873738       0.14832213
H        6.45472176       2.71945854      -0.23774625
