13
Properties=species:S:1:pos:R:3 -1333.0875147177783=T 9.791245=T 10.1343=T -9.5373=T -7.4472=T -9.824=T 1.3537=T -0.3666=T 0.279=T 9.93325=T 0.29429=T 4.323267834=T 6.1242016798=T 0.309243363=T pbc="F F F"
C        1.00892123      -0.63331991      -0.66335679
C        2.18784178      -0.41617660      -0.07011586
C        3.08099418       0.75316788      -0.37048756
N        4.40830900       0.32723246      -0.81271690
C        5.56095516       0.67996271      -0.16790535
O        5.63009392       1.40124846       0.82119005
H        0.38561828      -1.48897521      -0.40115515
H        0.62182309       0.04887968      -1.42505660
H        2.55796050      -1.11303433       0.68950060
H        3.25776096       1.35621620       0.53375583
H        2.61802239       1.40658346      -1.12800342
H        4.47797850      -0.30073395      -1.60947000
H        6.45738101       0.23124914      -0.65487885
