16
Properties=species:S:1:pos:R:3 -1704.408346686683=T 11.969911=T 12.63358=T -7.6819=T -5.7965=T -7.821=T 0.8689=T 0.0413=T 1.121=T 7.25517=T -0.51808=T 4.7405675142=T 6.0460285068=T 0.425923486=T pbc="F F F"
C        0.93715574       0.06577067      -0.01000475
C        2.43682239       0.02783767      -0.00198388
C        3.27905663       1.12964153       0.00839011
N        4.57878484       0.67274354       0.01338170
C        4.58530315      -0.70521702       0.00660093
C        3.26835985      -1.14240064      -0.00316835
C        2.80139338      -2.57109159      -0.01390716
H        0.57137155       1.10182871      -0.00293598
H        0.50837415      -0.44043730       0.86945975
H        0.51800062      -0.42507076      -0.90272475
H        3.05347740       2.19147604       0.01281806
H        5.40389569       1.25956741       0.02144393
H        5.51718231      -1.26231060       0.00927116
H        1.70430519      -2.62602550      -0.00658283
H        3.16082158      -3.12842733       0.86475551
H        3.14784553      -3.11117483      -0.90855344
