11
Properties=species:S:1:pos:R:3 -1174.9763420197287=T 11.306761=T 11.08914=T -7.6825=T -5.7933=T -7.866=T 0.9842=T -0.2641=T 0.351=T 7.36841=T 0.22438=T 4.104680516=T 6.2773615856=T 0.35774165=T pbc="F F F"
N        0.86169379       0.05014167      -0.22697186
C        2.25386411       0.01536001      -0.07836024
C        3.14571356       1.06526648      -0.01040826
C        4.50608267       0.63593871       0.03420015
C        4.65091934      -0.72616685       0.00425658
S        3.10156012      -1.51990246      -0.10710517
H        0.47423318       0.96730215      -0.01062742
H        0.36904822      -0.66801500       0.30246009
H        2.83373679       2.10928491       0.01328073
H        5.35053353       1.32125066       0.09969960
H        5.55386469      -1.32660027       0.04869580
