17
Properties=species:S:1:pos:R:3 -1720.8800816342202=T 12.373004=T 14.43503=T -9.6255=T -7.2926=T -9.39=T 0.8806=T -0.1752=T 2.248=T 8.96384=T -1.77805=T 4.1615032998=T 10.1002467208=T 0.441838332=T pbc="F F F"
C        0.90327326      -0.01076044       0.01539329
C        2.43134517      -0.01319068       0.01430584
C        3.01599749       1.41464200       0.00132716
C        4.47369401       1.44063666      -0.00087052
C        5.69104109       1.42857037       0.01203140
C        7.15049193       1.46311097      -0.01351673
O        7.69587868       2.79302828      -0.05539658
H        0.50555278      -1.03512797       0.02524997
H        0.50293402       0.49372785      -0.87738907
H        0.50432048       0.51022287       0.89921451
H        2.81160084      -0.55973581      -0.86279655
H        2.81266209      -0.54353808       0.90078490
H        2.64109294       1.97006406       0.87891461
H        2.63845357       1.95327572      -0.88568435
H        7.51716926       0.86267292      -0.86812536
H        7.56005467       1.00692433       0.90117592
H        7.19407774       3.28407697      -0.73043843
