15
Properties=species:S:1:pos:R:3 -1454.1023929354133=T 11.788896=T 11.72952=T -8.9492=T -7.0195=T -9.304=T 0.2945=T -1.3529=T -0.209=T 8.70671=T 0.69378=T 4.287311894=T 5.3258434272=T 0.559308645=T pbc="F F F"
C        1.15467672      -0.50898835      -0.14409646
N        2.55253240      -0.14692930      -0.27446744
C        2.97006287       0.98299341       0.18434861
N        2.17144708       1.95479323       0.84192030
O        1.04699952       2.40162124       0.05402029
C        4.42061905       1.24359093       0.11783711
C        5.04672761       2.41487574       0.31469089
H        1.06787408      -1.60149105      -0.22405332
H        0.55013148      -0.06490707      -0.95102556
H        0.71666305      -0.18856166       0.82056152
H        2.70601897       2.80029041       1.05017022
H        0.28339138       2.17331435       0.61696280
H        4.99657641       0.35062447      -0.13457635
H        4.52449416       3.34843755       0.53730680
H        6.13159521       2.48503609       0.23593061
