16
Properties=species:S:1:pos:R:3 -1627.0336431597293=T 11.500048=T 12.08287=T -9.1336=T -7.2194=T -9.756=T 1.3543=T -0.3062=T 0.366=T 9.70428=T 0.27004=T 4.3361995738=T 6.6732736808=T 0.346661763=T pbc="F F F"
C        0.97863109       0.43601642       0.02428765
N        2.42496855       0.51118044       0.14310686
C        3.20858734      -0.70654729      -0.08226773
C        3.17724122      -1.15393980      -1.51748347
C        2.74180228      -2.34937784      -1.92926845
C        3.06005668       1.67618305       0.48408687
O        4.27214455       1.81877209       0.61501155
H        0.55093879       1.43164242       0.19937959
H        0.55776728      -0.26181344       0.76680852
H        0.68201627       0.09596430      -0.97918032
H        2.83649825      -1.50724628       0.57925950
H        4.23679066      -0.45189205       0.21812692
H        3.55405668      -0.42682631      -2.24500403
H        2.36133290      -3.09085332      -1.22147235
H        2.76213851      -2.63371524      -2.98205782
H        2.33533895       2.50944286       0.63539670
