17
Properties=species:S:1:pos:R:3 -1752.6479325963212=T 11.423555=T 12.19393=T -9.5016=T -7.3333=T -9.309=T 1.0374=T -0.2809=T 1.187=T 8.77075=T -0.55395=T 6.2089957052=T 0.320660305=T pbc="F F F"
C        1.07911654       0.07519301      -0.41306822
C        2.50408692      -0.05561672       0.13864334
C        2.74773166      -1.36205787       0.93842869
C        3.62570415      -0.98203897       2.15645129
O        5.02449526      -1.32184080       2.01236057
C        3.43415237       0.51300066       2.25562096
C        2.87203850       1.01347205       1.14470629
H        0.85176912      -0.74371984      -1.11126672
H        0.94329353       1.02351938      -0.95399566
H        0.34169958       0.04092686       0.40359237
H        3.19993652       0.01174937      -0.71998725
H        3.21814387      -2.16189211       0.35022422
H        1.77902358      -1.74250284       1.30029902
H        3.32013033      -1.52222674       3.06532686
H        5.40170946      -0.69560671       1.36736720
H        3.80003566       1.09234042       3.10475769
H        2.69933294       2.07556086       0.95347937
