15
Properties=species:S:1:pos:R:3 -1452.7531620784266=T 11.736892=T 11.45115=T -8.3158=T -6.435=T -8.824=T 1.3854=T -0.2311=T 0.563=T 8.1342=T -0.04941=T 4.9591548322=T 5.2999923462=T 0.413576318=T pbc="F F F"
C        2.09938708       0.11651857      -1.26190268
O        2.33765560       0.59884821       0.08333316
N        2.91675661       1.87363938       0.02464100
C        2.05731950       2.96607512       0.11902906
C        0.71872968       2.91878024       0.20887795
C        4.29982252       1.93166696       0.19727387
N        5.12505509       0.96404840       0.33563138
H        1.63621618      -0.86825025      -1.12714038
H        3.04508089       0.01698916      -1.81459068
H        1.41250193       0.78656452      -1.79904421
H        2.60096765       3.91295019       0.09358819
H        0.17536610       1.97737508       0.25707246
H        0.15798743       3.84877803       0.25645834
H        4.65754217       2.97024596       0.18224075
H        4.61763157       0.06734043       0.36098179
