15
Properties=species:S:1:pos:R:3 -1447.7942883607=T 11.066455=T 11.75654=T -9.0916=T -6.9298=T -10.274=T 1.377=T -0.5194=T 0.304=T 9.77309=T 0.22183=T 5.3858154554=T 6.526871012=T 0.394497978=T pbc="F F F"
N        0.39188279       0.29075291      -0.35703070
C        1.67341360      -0.27230720       0.00411968
C        2.40306827      -1.09152657      -1.04273115
C        2.88408838       0.28800942      -0.68462825
O        4.02545163       0.43184649       0.14198937
N        5.19641932       0.29971158      -0.64330860
C        6.24506363       0.45313098       0.07577380
H        0.16528942       1.08157026       0.25108463
H       -0.34655894      -0.40572313      -0.23094142
H        1.85499472      -0.58849191       1.04010629
H        1.92491269      -1.20996195      -2.01515813
H        3.00085459      -1.93286046      -0.69353627
H        2.73705271       1.09617781      -1.40455820
H        7.19875602       0.37195695      -0.44640906
H        6.21283116       0.65436481       1.15325803
