19
Properties=species:S:1:pos:R:3 -1925.2193075358698=T 13.03441=T 14.2015=T -9.2173=T -7.1579=T -9.372=T 1.5884=T 0.077=T 1.36=T 8.82225=T -0.75691=T 6.5740104892=T 0.477525667=T pbc="F F F"
C        0.99837244      -0.38357420       0.33842661
C        2.40738763       0.13022971       0.10175792
C        2.95474009       1.32143502       0.93441121
C        4.33725828       0.62161026       0.94467209
C        3.61903806      -0.72376212       0.61420693
C        4.26314977      -1.69158285      -0.31585600
C        4.43335730      -3.00008896      -0.08368526
H        0.81862945      -1.31844893      -0.21396507
H        0.24416914       0.34860730       0.01129103
H        0.82833497      -0.58540168       1.40763545
H        2.55995351       0.33925282      -0.97160817
H        2.50495499       1.33669124       1.93965816
H        2.88528832       2.32903739       0.50177502
H        4.96229690       0.94847599       0.09963314
H        4.93799334       0.65854297       1.86343248
H        3.32960482      -1.23140976       1.55086777
H        4.61103184      -1.27257597      -1.26947931
H        4.10449740      -3.45759277       0.85339721
H        4.90749176      -3.65570547      -0.81564121
