11
Properties=species:S:1:pos:R:3 -1247.9763765532557=T 9.856141=T 10.27073=T -10.1373=T -8.1842=T -10.509=T -0.6171=T -2.3806=T -1.051=T 10.05518=T 1.55515=T 4.086330588=T 10.5322759378=T 0.283417225=T pbc="F F F"
N        1.18160378      -0.12167497      -0.61506106
C        2.38705967      -0.07767334       0.04024752
O        2.86276976      -1.01589353       0.66525515
C        3.08082112       1.27436088       0.00429240
C        2.42176721       2.44248246       0.13918766
C        4.50905212       1.23820873      -0.07129843
N        5.67340551       1.22191654      -0.16830359
H        0.97369667       0.54671700      -1.34941087
H        0.73474573      -1.03304595      -0.67072465
H        1.33579033       2.46191326       0.22963350
H        2.95698810       3.38985893       0.19713236
