16
Properties=species:S:1:pos:R:3 -1631.9252748194735=T 12.825955=T 14.02051=T -8.9856=T -6.9151=T -9.631=T 1.3889=T -0.1907=T 1.258=T 9.1474=T -0.69973=T 4.4022841118=T 10.8837018562=T 0.472355104=T pbc="F F F"
C        1.04175067      -0.22652901      -1.00103647
C        2.07055635      -0.13526994      -0.15133562
C        2.91390340       1.09250746       0.03027952
N        4.33362848       0.78320959      -0.17321602
C        5.18530475       1.96658946       0.01198354
C        6.57545521       1.70070313      -0.34017613
C        7.72664989       1.48997974      -0.66022699
H        0.45145640      -1.13981142      -1.08718957
H        0.75039115       0.61556600      -1.63436454
H        2.35243011      -0.99479263       0.46582320
H        2.80704207       1.45290947       1.07067865
H        2.53956191       1.90763033      -0.62765068
H        4.46875758       0.42222879      -1.12174080
H        5.13092551       2.26314382       1.07473468
H        4.83692973       2.84828681      -0.57213880
H        8.74526678       1.29928841      -0.93025397
