20
Properties=species:S:1:pos:R:3 -1933.8227932578718=T 12.561699=T 13.82293=T -8.2304=T -6.2262=T -9.726=T 0.9633=T 0.075=T 3.225=T 8.94815=T -2.93678=T 7.8763222374=T 11.7481818426=T 0.113043461=T pbc="F F F"
C        2.22536732      -0.50322851      -1.37579299
C        2.35911753       0.07537969       0.02946533
N        3.19726026       1.26317312       0.04835291
C        2.65964972       2.50890764      -0.55408444
C        3.31820478       3.31928582       0.59535338
C        4.67460883       3.92451218       0.25711106
C        3.37624481       1.95993855       1.34394675
H        1.60079173      -1.40744281      -1.36617869
H        3.21276200      -0.76213567      -1.78321143
H        1.75412277       0.21895373      -2.05923936
H        2.82160236      -0.66923023       0.69901189
H        1.34497120       0.29412643       0.44376946
H        1.55084052       2.56115548      -0.51474046
H        2.99578911       2.71473107      -1.58352432
H        2.66257206       4.06915578       1.05916570
H        5.33079369       3.17380393      -0.20740679
H        5.17560038       4.30386247       1.16074588
H        4.56868208       4.76620660      -0.44421281
H        4.30486158       1.70642112       1.88219891
H        2.51140727       1.82869359       2.02749000
