15
Properties=species:S:1:pos:R:3 -1501.060418781675=T 11.725962=T 11.9961=T -9.07=T -7.1955=T -9.456=T 0.3806=T -1.2798=T -0.16=T 8.79107=T 0.62529=T 4.7285284736=T 5.5057347146=T 0.587563278=T pbc="F F F"
N        4.39084328      -1.39549280      -0.29579782
C        3.23267448      -0.62293496      -0.35493863
N        2.03802879      -1.05242108      -0.61279978
C        3.38788845       0.83431596      -0.17216753
C        4.54033424       1.51774634      -0.06264640
C        4.60971226       3.00121636       0.13769263
O        5.30104131       3.34494083       1.35159638
H        5.14485427      -1.04256838       0.28831737
H        4.24421447      -2.39586278      -0.19326803
H        2.02952678      -2.07639258      -0.73047393
H        2.43054105       1.36188039      -0.15378554
H        5.51041026       1.01060859      -0.10758972
H        3.59587132       3.43976639       0.11226401
H        5.19887373       3.47201485      -0.66482032
H        4.81217531       2.92873288       2.08444729
