14
Properties=species:S:1:pos:R:3 -1434.6191411767795=T 10.805526=T 11.56527=T -9.4369=T -7.4958=T -10.082=T 0.8647=T -0.4812=T 0.604=T 9.32074=T -0.09039=T 4.940532135=T 6.2092932716=T 0.205466125=T pbc="F F F"
C        0.91437771       0.16395406       0.67952018
C        2.26392035      -0.18185211       0.03560162
N        2.09118293      -0.86291604      -1.24541936
C        3.01818240      -1.79353327      -1.70304585
N        3.18873353      -2.25020582      -2.88676106
C        3.10153026       1.03133036      -0.09583650
N        3.74139819       1.99762234      -0.23088583
H        1.06434261       0.65903099       1.64723522
H        0.33854967      -0.75754933       0.82755967
H        0.33946720       0.84346668       0.03571741
H        2.80752952      -0.87833763       0.69515740
H        1.61454112      -0.31724799      -1.96387310
H        3.63490386      -2.20564251      -0.88968222
H        2.56789065      -1.79074972      -3.57047758
