17
Properties=species:S:1:pos:R:3 -1615.4100489857917=T 10.672408=T 11.7949=T -9.0344=T -6.8422=T -10.424=T 0.8352=T -0.1596=T 2.747=T 9.86778=T -2.43402=T 8.1744341758=T 11.8059097242=T 0.145728485=T pbc="F F F"
N        1.07923748       0.05433796      -0.71550726
C        2.48480089      -0.09100175      -0.30684673
C        3.01324495       1.25087341       0.24701313
N        2.22163918       1.78531968       1.35598135
C        4.47325682       1.11355048       0.63592752
C        5.10245798       1.93575815       1.67906470
O        4.74720593       0.55573876       1.94335049
H        0.64665933      -0.86229825      -0.83900572
H        1.02290625       0.52322060      -1.62322606
H        3.15412885      -0.44323425      -1.11856230
H        2.53117369      -0.83921495       0.50095676
H        2.97944719       1.98916573      -0.58015649
H        2.39117410       1.18856803       2.17405223
H        1.23609242       1.65043184       1.10735184
H        5.12113548       0.71261538      -0.15516266
H        4.48937384       2.67560234       2.20026422
H        6.17895563       2.13044683       1.63098497
