12
Properties=species:S:1:pos:R:3 -1282.7514403532869=T 11.703937=T 12.11005=T -8.2538=T -6.3763=T -8.285=T 0.6608=T -0.7399=T -0.19=T 7.8178=T 0.87312=T 3.9173500686=T 10.2905652308=T 0.513479543=T pbc="F F F"
C        0.97179602      -0.03816723      -0.00631543
C        2.46616240       0.05483739      -0.00314626
C        3.18930530       1.22835766      -0.00369057
O        2.64530279       2.48199004      -0.00727122
S        4.91104787       0.90167538       0.00045343
C        4.51827348      -0.81467425       0.00273494
N        3.24479426      -1.08472231       0.00036019
H        0.51695232       0.95939945       0.00319657
H        0.61709239      -0.59358230       0.87422231
H        0.61870954      -0.57526442      -0.89893138
H        3.34891967       3.15246516      -0.00594463
H        5.31957395      -1.55072456       0.00590206
