16
Properties=species:S:1:pos:R:3 -1612.047142052467=T 10.357041=T 11.25342=T -8.2811=T -6.1663=T -9.656=T 0.8364=T -0.1307=T 2.954=T 9.04626=T -2.60404=T 7.7376314978=T 11.181801396=T 0.191330907=T pbc="F F F"
O        1.10347449       0.14000345       0.26765635
C        2.49835586      -0.03161106      -0.04565653
C        2.71366553      -1.48250030      -0.51737654
N        2.74679192      -1.43375302      -1.99761370
C        3.18891766      -0.09632136      -2.38717941
C        2.11526161       0.95568204      -2.42913691
C        3.01042184       0.82931303      -1.20258565
H        0.94288173       1.09567847       0.35645888
H        3.10118073       0.16748671       0.85876925
H        1.89301458      -2.11983905      -0.15608022
H        3.66248680      -1.86026616      -0.09094952
H        3.37659438      -2.14063589      -2.37448017
H        4.05364093      -0.02003989      -3.05044644
H        2.26743353       1.83405101      -3.05803853
H        1.08719060       0.60248770      -2.33783719
H        3.72295782       1.62588434      -0.98584367
