14
Properties=species:S:1:pos:R:3 -1432.7431838420555=T 9.560297=T 10.13651=T -8.8089=T -6.8574=T -10.414=T 0.8144=T -0.1937=T 0.203=T 9.91937=T 0.466=T 4.3270742042=T 12.4190948858=T 0.183407866=T pbc="F F F"
O        1.17980064      -0.07265527       0.39557174
N        2.42691820       0.02906205      -0.23234211
C        3.20833098       1.24130569      -0.07116087
C        4.49656751       0.83756471      -0.82412937
C        4.58693357      -0.69544160      -0.65920385
C        3.16461705      -1.11781326      -0.33239591
O        2.67994693      -2.23324684      -0.11613828
H        1.12066168      -1.06073523       0.49554515
H        3.38537962       1.45133997       0.99953753
H        2.69759109       2.10371583      -0.52064258
H        4.39381301       1.09800509      -1.88617365
H        5.37289449       1.36449538      -0.42845531
H        4.96988070      -1.21882605      -1.54444753
H        5.21889454      -0.98899047       0.19409503
