16
Properties=species:S:1:pos:R:3 -1630.7801546524906=T 12.664804=T 12.69864=T -8.1565=T -6.3146=T -8.961=T 0.612=T -0.9363=T -0.463=T 8.82742=T 1.12305=T 3.5411889432=T 4.5157189032=T 0.463605667=T pbc="F F F"
C        1.14623198      -1.10209857       0.35017281
N        2.34051465      -0.41149149      -0.10680482
C        2.61260379       0.88602743       0.21501149
C        3.81952512       1.50783682       0.08902423
C        4.05927160       2.91608517       0.37778690
C        2.90003092       3.79254015       0.85007692
O        5.18870750       3.40558941       0.24840362
H        0.91542446      -1.93444099      -0.32727069
H        0.29604130      -0.40773514       0.33041852
H        1.24547184      -1.50008282       1.37512709
H        3.13635079      -0.99389422      -0.35681812
H        1.73895835       1.44007281       0.57144945
H        4.69657410       0.94962258      -0.25102779
H        2.47300281       3.41884001       1.79287221
H        2.09185247       3.82553553       0.10441431
H        3.28002831       4.80733333       1.00956385
