17
Properties=species:S:1:pos:R:3 -1635.1751173705868=T 11.037466=T 11.95608=T -8.9214=T -6.8958=T -10.29=T 0.8281=T -0.1647=T 0.468=T 9.65081=T 0.19767=T 4.32029217=T 12.9284045766=T 0.130417384=T pbc="F F F"
C        1.11859823       0.20147716       1.41238696
C        2.09959554      -0.03345073       0.26013436
C        2.97272397       1.18736511       0.00441886
O        2.52491888       2.33389997      -0.08296465
N        4.31754035       0.92691033      -0.13354099
N        5.18936714       1.93786908      -0.60820164
C        5.92606001       2.55981075       0.50742650
H        0.42601161      -0.64486600       1.51207653
H        0.53631078       1.11399980       1.23176240
H        1.65107886       0.32179249       2.36653031
H        1.54007338      -0.22247025      -0.67115240
H        2.72093505      -0.92344541       0.44910325
H        4.61371248      -0.02224131      -0.35213220
H        4.55474166       2.64784340      -0.99843440
H        6.63175816       1.83145296       0.92965504
H        5.26939001       2.93376186       1.31140898
H        6.50652390       3.39736080       0.09659309
