10
Properties=species:S:1:pos:R:3 -997.5011050441734=T 6.35476=T 6.74966=T -9.4485=T -7.2766=T -10.679=T 1.3817=T -0.5916=T 0.236=T 9.73431=T 0.41796=T 3.742207445=T 16.0399324354=T 0.247732625=T pbc="F F F"
C        0.98870488       0.02100563      -0.00777406
C        2.50288943       0.04767470       0.00563311
C        3.21567869      -1.29734814      -0.00338409
O        3.13402804       1.09436236       0.02167242
H        0.58642815       1.03959366      -0.00195952
H        0.61607549      -0.53670600       0.86563530
H        0.63133744      -0.52047915      -0.89770343
H        2.52891720      -2.15252383       0.01788840
H        3.89244997      -1.34813055       0.86086481
H        3.84356070      -1.35877868      -0.90363294
