12
Properties=species:S:1:pos:R:3 -1290.1057822992884=T 10.201933=T 11.1483=T -9.8548=T -7.8435=T -10.217=T -0.0638=T -1.9258=T -0.697=T 9.77009=T 1.29091=T 3.4762202792=T 10.7784625394=T 0.535623437=T pbc="F F F"
C        0.96767279      -0.08846460       0.00307522
C        2.50304767      -0.00062441      -0.00006005
C        3.01024451       1.36105896       0.00003389
C        3.38557615       2.52321315       0.00010503
C        3.90049080       3.86447231       0.00018847
O        3.20654286       4.87454466       0.00026135
H        0.64988318      -1.13957536       0.00293345
H        0.54727373       0.40253012      -0.88396613
H        0.55098474       0.40114758       0.89263154
H        2.91475247      -0.52398453      -0.88005482
H        2.91845238      -0.52557295       0.87723865
H        5.01548873       3.92886508      -0.00023661
