17
Properties=species:S:1:pos:R:3 -1752.9111635543998=T 11.539053=T 12.58537=T -8.0827=T -6.0155=T -8.591=T 0.9266=T 0.0275=T 1.372=T 8.08219=T -0.75246=T 5.692011281=T 0.252772643=T pbc="F F F"
C        0.94825601      -0.00974499      -0.08013644
C        2.48544804       0.00749452      -0.04177082
C        3.10434252      -1.19856854       0.70528311
O        3.53305539      -0.71755973       2.01564274
C        3.55773319       0.66188497       1.92905037
C        4.12930615       1.34680156       3.12003365
C        3.03892006       1.14639271       0.78762133
H        0.57406793      -0.86706779      -0.66097265
H        0.55722037       0.90749463      -0.54427711
H        0.53688007      -0.07323362       0.93826894
H        2.86331566       0.03212251      -1.07783229
H        3.99921386      -1.58171917       0.18852642
H        2.39865075      -2.02485554       0.87058470
H        4.09335474       2.43472187       2.99190213
H        5.17327755       1.04003921       3.28360285
H        3.56465295       1.07760482       4.02548070
H        2.94090475       2.20047258       0.54082236
