17
Properties=species:S:1:pos:R:3 -1662.4319287570418=T 11.310364=T 12.66061=T -9.228=T -6.9916=T -10.427=T 0.8822=T -0.0467=T 3.052=T 9.86002=T -2.64527=T 8.5228100386=T 11.1854713816=T 0.242490365=T pbc="F F F"
N        1.16498315      -0.13505318       0.08474024
C        2.59961362      -0.12152550      -0.11158022
C        3.11944263      -0.56543738      -1.45661019
C        3.16360404       0.89668177      -1.08139764
C        4.43866625       1.61926714      -0.77733597
C        5.76591485       0.95942417      -0.63086934
N        5.45283936       1.72368079      -1.85737893
H        0.90248225       0.50384610       0.83956839
H        0.85560994      -1.06873573       0.36710957
H        3.25188469      -0.35594771       0.74150440
H        2.37428041      -0.85252762      -2.19836641
H        4.05091305      -1.13035553      -1.49136578
H        2.40208981       1.51125024      -1.56936796
H        4.29956431       2.51463915      -0.15898214
H        5.86568980      -0.11770707      -0.78499024
H        6.46346995       1.38014548       0.09846723
H        5.90575189       2.64225489      -1.81311503
