19
Properties=species:S:1:pos:R:3 -1925.491999575199=T 13.77947=T 14.90503=T -9.0128=T -6.9459=T -8.874=T 1.4439=T -0.0985=T 1.097=T 8.33633=T -0.63189=T 6.0025838124=T 0.446518696=T pbc="F F F"
C        0.70385646       1.01191910       0.23285898
C        2.18238747       0.94097099       0.46623064
C        3.12220635       1.31891698      -0.41023403
C        4.61272669       1.23587866      -0.17866450
C        5.27354061       0.30350461      -1.21746710
C        5.23112143       2.61303433      -0.23517276
C        5.89357778       3.20246033       0.76589058
H        0.23817516       0.01639705       0.31545521
H        0.47086505       1.41664580      -0.76203399
H        0.21199740       1.64908726       0.98575158
H        2.50389758       0.54684349       1.43888534
H        2.81083323       1.71739249      -1.38590782
H        4.78592627       0.82091087       0.82948541
H        5.12231808       0.68538733      -2.23923604
H        4.83515969      -0.70307779      -1.16539617
H        6.35593076       0.22856044      -1.04130108
H        5.11620327       3.14479180      -1.18858002
H        6.02622633       2.70611784       1.73106986
H        6.32148038       4.20040841       0.65907592
