14
Properties=species:S:1:pos:R:3 -1388.8413084964288=T 9.767286=T 10.14933=T -8.1502=T -6.0777=T -8.899=T 0.883=T -0.0393=T 0.916=T 8.44046=T -0.26241=T 5.1775189754=T 5.3338405242=T 0.151747975=T pbc="F F F"
C        1.05093778      -0.03722248       0.00234648
C        2.54012520       0.02679934      -0.00687924
N        3.28179038      -1.03167091       0.03415984
N        4.62399497      -0.64387419       0.16626633
C        4.74715264       0.76820620      -0.27456123
C        3.35055699       1.30973632       0.05806891
H        0.71655552      -1.08021477      -0.05157938
H        0.62054261       0.52168106      -0.84333126
H        0.64269924       0.41361608       0.92260205
H        5.21200012      -1.30271082      -0.34502602
H        4.93715415       0.83759529      -1.36245699
H        5.56030046       1.27388709       0.26231453
H        3.00078973       2.08548403      -0.63675236
H        3.30409022       1.73000776       1.07951835
