11
Properties=species:S:1:pos:R:3 -1289.2448618602223=T 11.837476=T 12.81314=T -9.8736=T -7.8779=T -9.938=T -0.8181=T -2.4927=T -1.016=T 9.45577=T 1.66632=T 3.3155592204=T 10.3526946154=T 0.535982658=T pbc="F F F"
C        1.00064677       0.02602464       0.00018537
C        2.44895468       0.01649406       0.00009868
C        3.66826769      -0.00768043       0.00002490
C        5.10864621      -0.06125881      -0.00006504
O        5.74292192      -1.11745760      -0.00017395
C        5.77211889       1.23028071      -0.00001627
C        6.35105034       2.29935602       0.00002399
H        0.60462305       1.05125759       0.01155174
H        0.61249159      -0.50575601       0.88147771
H        0.61286518      -0.48556898      -0.89316606
H        6.86570369       3.23933881       0.00005894
