16
Properties=species:S:1:pos:R:3 -1511.9668056816195=T 10.269732=T 11.22496=T -8.7434=T -6.5605=T -9.991=T 0.901=T -0.056=T 3.205=T 9.51851=T -2.86959=T 8.118789259=T 11.9976168774=T 0.156115158=T pbc="F F F"
N        2.90269696      -1.05449529      -0.62876573
C        2.39349576       0.04566080       0.21203418
C        3.34617677       1.21840563       0.23207331
C        3.45900864       2.12418131      -0.97988173
C        2.82052683       2.64693598       0.27468940
N        3.44970998       3.72699454       1.00627692
H        2.25250579      -1.84395643      -0.59400547
H        3.78520456      -1.40041940      -0.24154480
H        2.17723420      -0.25504790       1.25866342
H        1.43507578       0.37506407      -0.22429826
H        4.27770282       1.05450140       0.78509921
H        2.82803258       1.89853134      -1.84049196
H        4.44825206       2.50777193      -1.23839693
H        1.73025302       2.74458267       0.24835547
H        4.45459642       3.74618529       0.81890919
H        3.34068782       3.58707407       2.01431379
