15
Properties=species:S:1:pos:R:3 -1475.4273352845878=T 9.629739=T 10.29605=T -8.9014=T -6.9372=T -10.046=T 0.7507=T -0.1892=T 0.607=T 9.41365=T 0.07068=T 4.307645598=T 12.968625635=T 0.209824445=T pbc="F F F"
C        0.95681143      -0.10420397      -0.03152914
N        2.40504562       0.01093490      -0.00779092
C        3.13592297      -1.24851152      -0.01261672
C        3.11094678       1.19829413       0.00997683
C        2.30578006       2.49097101       0.01645092
O        4.34515654       1.22190086       0.02322496
H        0.48157302       0.87946540       0.00650677
H        0.60189274      -0.69244518       0.83207153
H        0.62089733      -0.61651608      -0.95003055
H        2.88721739      -1.84288144       0.88140359
H        4.20665933      -1.02123596      -0.01552993
H        2.88045166      -1.83998402      -0.90657617
H        1.66113133       2.58267165      -0.86926413
H        3.02423556       3.31625339       0.01804214
H        1.66990823       2.57338685       0.90977084
