13
Properties=species:S:1:pos:R:3 -1472.5139254995554=T 13.361414=T 13.67806=T -8.7369=T -6.7118=T -8.284=T 0.0368=T -1.4326=T 0.123=T 7.83928=T 0.52415=T 4.0179399104=T 7.8514382472=T 0.598099804=T pbc="F F F"
C        0.97048490      -0.24566848       0.09478472
C        2.45014820      -0.08757546       0.10126209
C        3.12109037       1.09498439      -0.00514295
C        2.44513620       2.34849224      -0.13947175
C        1.88682845       3.42320328      -0.25020162
C        4.55054620       1.13762866       0.01353377
C        5.76505251       1.19381996       0.02726426
H        0.65560367      -0.90971761      -0.72688356
H        0.45570894       0.71697645      -0.01247277
H        0.62933764      -0.72711803       1.02606426
H        3.05776408      -0.99077576       0.20010396
H        1.39735669       4.37037180      -0.34873725
H        6.83469216       1.23772855       0.03937683
