16
Properties=species:S:1:pos:R:3 -1604.7560121319875=T 10.278409=T 11.24239=T -8.8311=T -6.7763=T -10.759=T 0.832=T -0.1585=T 2.697=T 10.09008=T -2.39803=T 8.4481084736=T 13.2555168404=T 0.098918137=T pbc="F F F"
O        1.00875531      -0.19215763      -0.09483092
C        2.39473278       0.02896853       0.00686173
C        3.33868199      -0.54889133      -1.06833729
N        4.43291081      -0.39122757      -0.01943175
C        3.34267009      -0.72533933       0.98726198
C        4.43767792       1.11101970       0.10942577
C        2.92189503       1.47255323       0.13196067
H        0.55277301       0.41435864       0.51506169
H        3.49513571       0.01153385      -2.00199940
H        3.16446370      -1.61351208      -1.27154495
H        3.16633300      -1.80857463       1.00769589
H        3.50661669      -0.33028964       2.00162213
H        4.96825551       1.39101775       1.02978891
H        4.97322320       1.54379457      -0.74643846
H        2.60294057       2.09872291      -0.71352254
H        2.60134468       1.95270301       1.06972654
