19
Properties=species:S:1:pos:R:3 -1931.609960877938=T 14.177483=T 14.64999=T -8.2911=T -6.3341=T -8.23=T 0.7659=T -0.7145=T 0.415=T 7.6767=T 0.15751=T 5.0354558166=T 0.723511504=T pbc="F F F"
C        2.25614194      -0.47885512       1.41335862
C        2.22330164       0.19023892       0.02847511
C        2.90684635       1.54224979       0.00034156
C        2.17878762       2.68097713       0.02536070
C        4.36856998       1.61847190      -0.03445601
C        5.23089712       0.58630919      -0.13250262
C        6.71978564       0.72611746      -0.18099646
H        1.77183298      -1.46556647       1.38175480
H        1.72552796       0.13805469       2.15271477
H        3.28532937      -0.61585135       1.77285928
H        1.17656068       0.31893003      -0.28588237
H        2.68965695      -0.47646298      -0.71547667
H        1.08769251       2.65828426       0.03774911
H        2.65727470       3.66242242       0.03296657
H        4.78511320       2.63248317       0.01264851
H        4.84205595      -0.43649407      -0.18541575
H        7.03062815       1.77906014      -0.13241546
H        7.13204983       0.28857175      -1.10514389
H        7.19858743       0.18824914       0.65407017
