15
Properties=species:S:1:pos:R:3 -1556.5847011578114=T 10.568629=T 11.53034=T -8.7306=T -6.606=T -9.261=T 0.9667=T 0.0745=T 1.217=T 8.70887=T -0.64815=T 6.2487456168=T 0.412720197=T pbc="F F F"
C        1.08539768      -0.00472726       0.07027554
C        2.59179562      -0.00760891       0.06178922
O        3.10919668       1.10093878       0.77512026
C        4.41673309       0.68367056       1.18854165
C        4.26179802      -0.81020214       1.38372606
C        5.05505532      -1.66234723       2.04181466
O        3.10521740      -1.18486118       0.74062425
H        0.70752401      -0.88825726      -0.45895757
H        0.71660444       0.89515378      -0.43824623
H        0.71907196      -0.01429055       1.10469294
H        3.00420247      -0.02316078      -0.96974464
H        5.16659518       0.90545734       0.40446858
H        4.68231232       1.22088340       2.10719463
H        4.83584941      -2.72748113       2.07803006
H        5.93811640      -1.29097743       2.55702060
