14
Properties=species:S:1:pos:R:3 -1445.2446684737629=T 9.408885=T 10.27667=T -9.8004=T -7.6142=T -10.87=T 0.7787=T -0.4318=T 0.169=T 10.31508=T 0.49515=T 4.322461925=T 12.1574844258=T 0.105598284=T pbc="F F F"
C        0.92274360      -0.01999734       0.08254104
C        2.44143004       0.06306661      -0.06622038
N        2.80350702       0.02438449      -1.46706750
C        3.12579218       1.06300544       0.91822704
O        3.67536575      -0.06250956       1.70198857
C        3.16897909      -0.99594505       0.80682290
O        3.31783873      -2.18512027       0.82898586
H        0.62213589      -0.02501810       1.13817944
H        0.55627156      -0.93690864      -0.39577247
H        0.44768012       0.84499479      -0.40537811
H        3.80966366       0.13032529      -1.60849377
H        2.32887901       0.76481358      -1.98767988
H        2.47152276       1.68275320       1.54566521
H        3.94187058       1.65652556       0.48447206
