14
Properties=species:S:1:pos:R:3 -1432.4607791359=T 9.725999=T 10.57879=T -9.5002=T -7.4846=T -10.649=T 0.8085=T -0.2173=T 0.598=T 9.69622=T 0.09025=T 4.3499992156=T 12.1122667316=T 0.187099605=T pbc="F F F"
C        1.75563083      -0.49342525      -1.23503708
O        1.92700137       0.24325051      -0.02507310
C        2.98797094       1.15344714      -0.09435752
C        2.71862276       2.56666776      -0.72221404
N        3.07626560       3.12931690       0.58797868
C        3.24776896       1.92547736       1.24063872
O        3.51102461       1.62834629       2.38568386
H        0.94331814      -1.20847423      -1.05694719
H        2.67636731      -1.04509204      -1.49843616
H        1.47884723       0.16310585      -2.07967483
H        3.90947721       0.68272937      -0.48703271
H        1.66489572       2.71705588      -1.00000485
H        3.38639641       2.86862810      -1.54225977
H        3.14543291       4.08918634       0.92171597
