17
Properties=species:S:1:pos:R:3 -1738.4697686960756=T 10.710181=T 11.68167=T -9.4105=T -7.2314=T -11.246=T 0.9232=T 0.0143=T 2.887=T 10.66346=T -2.70573=T 9.0581443908=T 10.1335369618=T 0.108190138=T pbc="F F F"
C       -0.82458982       0.00087238      -1.14948771
C       -0.63504069       1.05257670      -0.01685672
C       -1.22087514      -0.00178008       0.95971031
C       -0.63565496      -1.05390638      -0.01962565
C        0.86368651      -1.20796864       0.25771262
O        1.58956068      -0.00129888      -0.02074474
C        0.86437935       1.20506443       0.26085985
H       -1.85336479       0.00168447      -1.53375384
H       -0.10551148       0.00175435      -1.98082224
H       -1.12308769       2.03483942      -0.09768900
H       -0.84972503      -0.00325837       1.99748024
H       -2.32015368      -0.00145060       0.95966402
H       -1.12424110      -2.03568445      -0.10303467
H        1.02017595      -1.52270265       1.30965385
H        1.31189864      -1.97079148      -0.39839468
H        1.31302381       1.96933062      -0.39327309
H        1.02107944       1.51697918       1.31361145
