11
Properties=species:S:1:pos:R:3 -1244.8493090644845=T 9.966013=T 9.437=T -8.8625=T -6.9775=T -9.294=T 0.2302=T -1.4826=T -1.112=T 8.62922=T 1.69727=T 3.3143069618=T 6.9914093582=T 0.456303405=T pbc="F F F"
O        0.92637349      -0.06624403       0.15293064
C        2.16094335      -0.01567405       0.04771940
C        2.94549733       1.20750911      -0.05501958
C        4.30245937       1.12786601      -0.16723195
N        4.92987390      -0.08470453      -0.18383659
N        4.30113058      -1.27561382      -0.09489638
C        2.99689107      -1.23234861       0.01377940
H        2.44155882       2.17268257      -0.04122640
H        4.96037897       1.99445366      -0.24859643
H        5.93989610      -0.15275889      -0.26704699
H        2.49684702      -2.20124741       0.08528488
