19
Properties=species:S:1:pos:R:3 -1877.784755602688=T 11.633357=T 12.90916=T -9.806=T -7.6075=T -11.588=T 0.8414=T -0.0994=T 2.671=T 11.21959=T -2.38902=T 9.4015732122=T 10.7328852858=T 0.122654234=T pbc="F F F"
C        1.05669712      -0.02367055       0.43213854
C        2.45192634      -0.00337900      -0.20127125
C        2.35294292       0.01802185      -1.72375967
C        3.37750122       1.07982211       0.44608189
C        3.94478447      -0.01476943       1.38551702
O        5.32120371      -0.00898889       1.73441999
C        3.39460397      -1.09027784       0.41439273
H        1.10200974      -0.03966122       1.53107723
H        0.49437304      -0.91335669       0.10781391
H        0.48040002       0.86630202       0.13421131
H        3.35010303       0.03342078      -2.18875405
H        1.80416985       0.90751464      -2.07212659
H        1.81951127      -0.87025929      -2.09809131
H        2.90609169       1.96298573       0.90130597
H        4.14890220       1.41558259      -0.26628036
H        3.41148336      -0.03303911       2.34697103
H        5.83387401       0.00745826       0.90596692
H        4.17107292      -1.39280331      -0.30730416
H        2.93732912      -1.99373264       0.84347086
