13
Properties=species:S:1:pos:R:3 -1479.8674578808984=T 15.394286=T 15.36644=T -8.3881=T -6.4711=T -8.013=T -0.1528=T -1.6459=T -0.028=T 7.61221=T 0.59375=T 3.7493862344=T 10.580035345=T 0.759381832=T pbc="F F F"
C        0.92131845      -0.02871643      -0.00000114
C        2.37279953       0.00333377       0.00018049
C        3.59363055       0.04203464       0.00021887
C        5.00309014       0.02796720       0.00024182
C        5.78165512       1.14593852      -0.00002422
C        7.19206230       1.12434782      -0.00006480
C        8.41077644       1.15439379      -0.00013893
H        0.49987732       0.98711731       0.01206455
H        0.53759750      -0.56465847       0.88158647
H        0.53742535      -0.54347841      -0.89407356
H        5.49197002      -0.95146916       0.00044905
H        5.30008976       2.12822229      -0.00022587
H        9.48133752       1.16470711      -0.00021273
