17
Properties=species:S:1:pos:R:3 -1700.9628712182462=T 11.264419=T 12.10878=T -8.5024=T -6.453=T -9.307=T 0.7891=T -0.1397=T 0.941=T 8.69682=T -0.33842=T 5.1649343964=T 12.3726373316=T 0.22914564=T pbc="F F F"
C        3.15626195      -1.16283482      -0.53185379
C        2.46006409       0.04483202       0.10016646
C        3.31918175       1.30886585       0.06578288
C        3.59817393       1.88238696      -1.35633030
N        3.49001214       3.35373220      -1.25550611
C        2.97544975       3.57700465      -0.09775396
N        2.65254455       2.47597819       0.69020288
H        2.52685410      -2.06085464      -0.46469106
H        4.10870754      -1.38490363      -0.02594982
H        3.37692374      -0.99231453      -1.59605447
H        2.19849917      -0.18701181       1.14632967
H        1.51098031       0.25904205      -0.41855698
H        4.27775162       1.10727926       0.58484610
H        2.83957816       1.52155296      -2.07554745
H        4.58389035       1.59726472      -1.74958527
H        2.73585450       4.57992104       0.26651564
H        2.72246234       2.58130953       1.70066559
