14
Properties=species:S:1:pos:R:3 -1428.4609358656382=T 11.282708=T 12.07161=T -9.6372=T -7.5133=T -9.964=T 1.3017=T -0.3715=T 0.404=T 9.54556=T 0.24313=T 4.3723786886=T 10.8218204436=T 0.581381131=T pbc="F F F"
C        0.99000365      -0.09125499       0.22947847
C        2.50603973      -0.01701685      -0.07941067
C        2.82788062      -0.84154791      -1.30367931
N        3.38647298      -0.32591296      -2.33260060
O        3.56975385      -1.29820707      -3.34616212
C        2.96642989       1.36794230      -0.15394408
C        3.31053942       2.53075958      -0.15853327
H        0.77098261       0.42565385       1.17213993
H        0.66822222      -1.13823558       0.31944710
H        0.41486448       0.38614967      -0.57451748
H        3.03657391      -0.49839885       0.76576063
H        2.55184392      -1.90560548      -1.27631329
H        4.00138792      -0.77458564      -4.04530883
H        3.62388480       3.55422993      -0.18214645
