15
Properties=species:S:1:pos:R:3 -1627.755927683066=T 11.242296=T 12.04636=T -8.3374=T -6.2998=T -8.077=T 1.1099=T -0.018=T 0.63=T 7.62108=T -0.05774=T 4.4614750282=T 6.8738706302=T 0.454032229=T pbc="F F F"
C        2.53910678      -0.57350163      -1.42091942
C        2.39539506       0.08751197      -0.03993089
C        2.83875610       1.51002834      -0.00384194
C        2.18903697       2.70179653       0.18173935
C        3.17760053       3.73682709       0.08879428
C        4.36502687       3.10754375      -0.14829544
O        4.18224897       1.74813409      -0.20903598
H        2.20483059      -1.62005971      -1.38669269
H        3.58584744      -0.56101238      -1.75398604
H        1.93798828      -0.04373376      -2.17335244
H        2.96775223      -0.49050094       0.70531922
H        1.34462083       0.06174838       0.28471529
H        1.12573809       2.82369556       0.36584970
H        3.02507369       4.80728397       0.18674343
H        5.38322758       3.45200873      -0.29039641
