14
Properties=species:S:1:pos:R:3 -1372.2230255354434=T 10.939665=T 10.92018=T -8.7067=T -6.7408=T -9.371=T 0.5642=T -1.1253=T 0.308=T 8.90361=T 0.39663=T 4.3530988656=T 5.5327884598=T 0.651436945=T pbc="F F F"
C        0.77408419       0.12590576      -0.02627738
C        2.22816385      -0.22266859       0.07198618
C        2.62046244      -1.67132197      -0.07382960
N        3.05078456       0.75818642       0.27646448
N        4.39702761       0.33155479       0.35515058
C        5.18967152       1.31996912       0.55998639
H        0.62505387       1.20454780       0.09571656
H        0.19896979      -0.41438757       0.74269846
H        0.36963659      -0.19337395      -1.00026729
H        1.73713470      -2.30698593      -0.21021723
H        3.18119553      -2.01022935       0.80771420
H        3.29478184      -1.80209362      -0.93156011
H        6.25885412       1.10670053       0.63863947
H        4.82552937       2.35367656       0.65472528
