16
Properties=species:S:1:pos:R:3 -1566.8158610337412=T 10.894187=T 11.97286=T -9.4142=T -7.1536=T -9.207=T 1.1402=T 0.1217=T 1.396=T 8.68171=T -0.79267=T 6.4017815366=T 0.412382178=T pbc="F F F"
C        3.24755451      -1.18421044       0.34470860
O        4.17795366      -0.11314377       0.31200228
C        3.59057484       1.07635961      -0.22707809
C        4.57977895       2.19478869      -0.16076913
C        4.98069552       2.90660593      -1.22222649
C        5.93671811       4.05772014      -1.17995026
H        3.76679519      -2.05069376       0.77356392
H        2.88939618      -1.44560784      -0.66990128
H        2.36770401      -0.94284030       0.97260295
H        2.68444363       1.33105139       0.36397520
H        3.26517177       0.90588332      -1.27342973
H        4.97215843       2.43104604       0.83482216
H        4.58158734       2.63950427      -2.20881727
H        6.29434608       4.24989875      -0.15909586
H        5.46634585       4.97945868      -1.55873967
H        6.81146592       3.86801929      -1.82228733
