14
Properties=species:S:1:pos:R:3 -1453.6904127417356=T 9.770491=T 10.48529=T -9.8194=T -7.7289=T -10.901=T 0.5221=T -1.4645=T -0.415=T 10.42665=T 1.06573=T 3.7019491908=T 6.2744851104=T 0.199957198=T pbc="F F F"
C        0.80762641       0.29839768       0.07151233
C        2.30531663       0.04215822      -0.18185570
N        2.60605723      -0.32103478      -1.55213687
C        2.35584214      -1.56731707      -2.04682955
O        1.77475807      -2.45914650      -1.43520515
C        3.11339957       1.26594694       0.19379928
O        3.86438006       1.84927481      -0.56710579
H        0.63370013       0.57557552       1.12090371
H        0.24956942      -0.62036322      -0.14364748
H        0.43748949       1.10466956      -0.57615912
H        2.62366614      -0.77869901       0.49091224
H        3.21482646       0.32190320      -2.06107758
H        2.73153072      -1.68717251      -3.08838601
H        2.95416752       1.62244716       1.24059571
