10
Properties=species:S:1:pos:R:3 -1173.968889462179=T 12.841035=T 12.8294=T -9.0033=T -7.1515=T -8.919=T -0.0226=T -1.5782=T -0.65=T 8.43958=T 1.27277=T 4.0926786712=T 6.2085617542=T 0.397613452=T pbc="F F F"
C        0.91085176      -0.00691043      -0.00394237
C        2.12588849       0.04892506      -0.00169344
C        3.54200766       0.08588791       0.00089992
C        4.32452559       1.23450935       0.00213461
S        5.97930299       0.79089221       0.00534802
N        5.69879804      -0.86820120       0.00484984
C        4.39204541      -1.07120239       0.00264634
H       -0.15885676      -0.05395700      -0.00592155
H        3.99143894       2.26874083       0.00140332
H        4.01946789      -2.09703434       0.00207532
