16
Properties=species:S:1:pos:R:3 -1603.1331233167764=T 12.088242=T 12.64167=T -8.5892=T -6.5442=T -8.984=T 0.9444=T -0.0908=T 1.104=T 8.45069=T -0.64397=T 5.971537718=T 0.388470188=T pbc="F F F"
N        0.40506713      -0.06023899      -0.20608217
C        1.84011828      -0.05463812       0.08215505
C        2.43568649       1.32817074      -0.01311943
C        1.74888370       2.47381408      -0.11649027
O        3.81994619       1.22953663      -0.00655213
C        4.54337545       2.33707435       0.37681213
C        5.78625384       2.54625557      -0.06443521
H        0.01446518      -0.97776841       0.01299440
H        0.25149114       0.09315089      -1.20611330
H        2.45177385      -0.71345467      -0.56695490
H        1.98881152      -0.42258724       1.11176440
H        0.66287665       2.42736173      -0.07946273
H        2.23685444       3.43802744      -0.24332423
H        4.03660020       2.98305939       1.10018278
H        6.24991250       1.88692422      -0.79752365
H        6.35835343       3.38548238       0.32551926
