16
Properties=species:S:1:pos:R:3 -1591.8791315146693=T 11.722727=T 12.2843=T -9.2769=T -7.2302=T -9.653=T 1.2523=T -0.3668=T 0.412=T 9.14354=T 0.19511=T 5.3932918112=T 6.2294161994=T 0.420436949=T pbc="F F F"
C        1.09109474      -0.03493858      -0.12423388
C        2.46339047       0.56388165      -0.04159037
C        3.66340074      -0.34741551      -0.20078012
C        4.05595181      -0.96505421       1.11767329
C        4.02242183      -2.27510170       1.38629156
N        2.52295372       1.83009745       0.19126070
O        3.87049358       2.29211742       0.28351088
H        0.32486087       0.72372144       0.07240064
H        0.98868940      -0.85040337       0.60870909
H        0.91846951      -0.47077328      -1.12116390
H        4.50283591       0.24413010      -0.59629250
H        3.42070859      -1.14043329      -0.92460641
H        4.37477384      -0.25897207       1.89094198
H        3.70879918      -3.00522751       0.63547468
H        4.31708280      -2.66310711       2.36234796
H        3.73150301       3.24638859       0.41126640
