16
Properties=species:S:1:pos:R:3 -1548.2652661343188=T 9.94126=T 11.13201=T -9.7889=T -7.5177=T -10.914=T 0.7901=T -0.2433=T 2.627=T 10.26419=T -2.3062=T 8.6610048342=T 11.3094945774=T 0.161728469=T pbc="F F F"
N        1.59578202       0.17161804      -1.34429493
C        3.00649014       0.12230260      -0.91360959
C        3.21582375       1.25393048       0.09674702
O        2.25253870       1.15035411       1.14443987
C        4.58494044       1.31280457       0.74705726
C        5.57171342       0.22134757       0.73923861
O        5.72441306       1.36072203      -0.13582316
H        1.31708539      -0.71254136      -1.77169345
H        1.46503701       0.89572160      -2.05535298
H        3.74192689       0.20470762      -1.73330434
H        3.15847307      -0.84024234      -0.40210568
H        3.08303000       2.21863839      -0.44360080
H        1.44168048       0.85089954       0.67571757
H        4.62847697       2.02681468       1.57920700
H        5.34846498      -0.72442585       0.23639832
H        6.30229369       0.16017833       1.55276927
