15
Properties=species:S:1:pos:R:3 -1448.6898354336745=T 9.532784=T 10.38114=T -8.6389=T -6.4347=T -9.831=T 0.8496=T -0.1584=T 2.902=T 9.42268=T -2.56414=T 7.8097417554=T 12.8870180498=T 0.176861912=T pbc="F F F"
C        1.01833060       0.01916592      -0.05106428
C        2.52497085       0.05806014       0.02419385
O        3.04993925       0.17126875       1.33965807
C        3.37509408      -0.70273436      -0.98168602
C        3.34374590       0.80995985      -1.01153044
N        4.54099031       1.55576881      -0.69097079
H        0.67727324       0.03481818      -1.09637150
H        0.58675661       0.88782911       0.46818227
H        0.61463813      -0.89540908       0.41531181
H        2.93205101      -0.69063970       1.77810205
H        2.88640220      -1.26181548      -1.78162624
H        4.29160011      -1.15490321      -0.59607243
H        2.77407656       1.26113894      -1.82849112
H        4.94910653       1.16139467       0.16261892
H        4.27604463       2.51392748      -0.44165416
