17
Properties=species:S:1:pos:R:3 -1746.4772111974312=T 12.040937=T 12.90041=T -9.0612=T -6.9314=T -9.116=T 0.8111=T -1.0375=T -0.16=T 8.56064=T 0.8093=T 3.665770076=T 5.2945617594=T 0.202268425=T pbc="F F F"
C        0.70800578      -0.25863296      -0.22369289
C        2.16114626       0.04739792      -0.02604503
C        2.74438227       1.25515580       0.11153202
C        2.02660330       2.57792964       0.08176096
C        4.25296325       1.35888703       0.26827393
C        4.86096818       1.75785829      -1.06436015
O        5.33904596       2.84772078      -1.31818366
H        0.55215822      -0.81744569      -1.16068132
H        0.07779647       0.63824705      -0.25942875
H        0.33165043      -0.90315891       0.58692609
H        2.81511806      -0.83132553       0.02321294
H        0.95540329       2.47738049      -0.12690841
H        2.46192210       3.24539353      -0.67878159
H        2.13850604       3.09731637       1.04767838
H        4.66837825       0.37937644       0.55365480
H        4.53103158       2.11070029       1.02203743
H        4.79804056       0.95986946      -1.85032475
