14
Properties=species:S:1:pos:R:3 -1343.7555875397084=T 9.339948=T 9.71017=T -9.2326=T -6.9216=T -9.22=T 0.9271=T -0.1831=T 1.454=T 8.63405=T -0.84448=T 6.4563105794=T 0.41183545=T pbc="F F F"
C        1.05296292       0.01869374       0.23773535
C        2.53651154      -0.15011210       0.05282313
C        3.11041466      -1.35319410      -0.09000680
C        3.35494711       1.12184645      -0.00025589
N        3.14139723       1.97220126       1.18914648
H        0.83164721       0.47130732       1.21763866
H        0.52783852      -0.94380599       0.18536805
H        0.62905791       0.68605189      -0.53168027
H        2.51855100      -2.27105089      -0.09350903
H        4.19081558      -1.45822712      -0.20883288
H        3.11764793       1.63993756      -0.95547370
H        4.42186640       0.85798855      -0.03751211
H        2.21870878       2.41248080       1.14287999
H        3.81456321       2.74157263       1.17444901
