11
Properties=species:S:1:pos:R:3 -1161.9857763438051=T 9.239716=T 8.85999=T -8.8314=T -6.7737=T -9.297=T 0.1014=T -1.6007=T -0.578=T 8.82188=T 1.01753=T 4.9314067654=T 0.457591158=T pbc="F F F"
C        0.98425866       0.00900723      -0.12687824
C        2.32445239      -0.01003065      -0.00152743
C        3.26701412      -1.18616108      -0.01708854
O        4.59635199      -0.59897628       0.16773750
N        4.47348581       0.78720625       0.27843036
C        3.22261829       1.11716654       0.18552061
H        0.40591532      -0.90482743      -0.26257754
H        0.43307938       0.94868091      -0.09565307
H        3.27066331      -1.73017628      -0.97385422
H        3.09575542      -1.89546529       0.80672525
H        2.94626531       2.16823608       0.25191533
