17
Properties=species:S:1:pos:R:3 -1715.6831602759057=T 11.7088=T 12.98458=T -9.8828=T -7.55=T -9.894=T 0.8755=T -0.0805=T 2.254=T 9.45525=T -1.80937=T 4.3401671258=T 10.367275369=T 0.336589318=T pbc="F F F"
C        1.13698725      -0.10428699       0.70362914
C        2.50854453      -0.00467662       0.00343302
C        2.50934881      -0.62228762      -1.41892377
C        1.58090585       0.06585220      -2.41999584
O        1.64574355      -0.53489295      -3.72046046
C        3.00106858       1.37479757      -0.00437465
C        3.40894815       2.51901457      -0.00632253
H        1.21084812       0.23782341       1.74406408
H        0.78779933      -1.14686722       0.70402972
H        0.38320779       0.51585059       0.20081992
H        3.22704908      -0.59573292       0.59966917
H        2.22906238      -1.68494368      -1.34171151
H        3.54055801      -0.58710212      -1.80920117
H        1.80984021       1.14580655      -2.46687455
H        0.52986864      -0.03702212      -2.11330793
H        2.54064807      -0.38085676      -4.07105155
H        3.76827164       3.52777409      -0.00300108
