21
Properties=species:S:1:pos:R:3 -1957.6300545595066=T 12.525676=T 13.71103=T -8.8208=T -6.5838=T -10.255=T 0.8806=T -0.0507=T 2.983=T 9.79103=T -2.6673=T 8.407242688=T 10.8480186854=T 0.096567054=T pbc="F F F"
C        1.09362236      -0.24294233       0.21115667
C        2.62128626      -0.09788307       0.14712957
N        3.21704354      -0.80145465      -1.01000677
C        3.08814468       1.37693916       0.13845735
C        2.41792467       2.23384412       1.21913033
C        4.62114440       1.46886116       0.25947080
N        5.09326631       2.83344103      -0.05038731
H        0.66844835       0.17330896       1.13574602
H        0.81113672      -1.30541259       0.16402720
H        0.61815784       0.26941322      -0.64175752
H        3.04924164      -0.57324810       1.05064315
H        2.76995989      -0.46040038      -1.86822894
H        2.98465016      -1.79683809      -0.95655694
H        2.80965760       1.79314561      -0.85235143
H        2.53269166       1.76839933       2.21257058
H        1.34525429       2.38359760       1.03670806
H        2.90324043       3.21873561       1.24955782
H        5.07162342       0.68336196      -0.37057082
H        4.89922406       1.25226625       1.30618290
H        5.03247578       2.98689422      -1.06129441
H        6.08646595       2.91096097       0.18040370
