14
Properties=species:S:1:pos:R:3 -1440.3674970254554=T 10.801455=T 10.96838=T -8.7461=T -6.8561=T -9.288=T 0.7552=T -0.8021=T 0.026=T 8.70081=T 0.54458=T 4.2560550234=T 5.3063280308=T 0.423806668=T pbc="F F F"
O        2.56597675      -0.39002366      -1.56684683
C        2.13106669       0.05258851      -0.27065330
C        2.68288711       1.42593488       0.01175470
C        1.86475683       2.47777424       0.20588109
N        4.07553236       1.56029456       0.11903388
C        5.05425810       0.60224025      -0.05237822
O        6.24504781       0.83858025       0.10688869
H        2.18676403      -1.27243476      -1.72006753
H        2.46809574      -0.64844522       0.51775852
H        1.03246406       0.11736343      -0.21956632
H        0.78729175       2.35833528       0.12080284
H        2.24681554       3.46919657       0.45224936
H        4.43973390       2.48598369       0.35077564
H        4.65838932      -0.38509803      -0.35883251
