17
Properties=species:S:1:pos:R:3 -1618.910350535375=T 11.181611=T 11.77473=T -8.7399=T -6.7266=T -9.27=T 1.049=T -0.1943=T 0.753=T 8.79313=T -0.08576=T 4.8987116572=T 10.9557377222=T 0.211483889=T pbc="F F F"
C        1.12310456      -0.13509952       0.17687069
C        2.46118217       0.50121646      -0.07639552
C        3.66622336      -0.41838446      -0.15951079
C        4.11790692      -0.72545745      -1.60241697
O        4.84638484       0.32847636      -2.22579331
N        2.47448501       1.78296871      -0.23252445
N        3.69068120       2.39914115      -0.54999370
H        0.33171737       0.62323610       0.16053313
H        1.11127163      -0.64682066       1.15289937
H        0.90123580      -0.90056433      -0.58474447
H        3.40760951      -1.37089314       0.32918282
H        4.53092886      -0.01099875       0.39538432
H        3.23334658      -1.01196829      -2.20495239
H        4.79929466      -1.59027167      -1.58884862
H        4.34673612       1.16297416      -2.10218295
H        3.61002212       3.38712606      -0.31163955
H        4.50885930       1.99463924      -0.07355759
