19
Properties=species:S:1:pos:R:3 -1811.1617582818194=T 11.96319=T 13.17084=T -8.515=T -6.3967=T -9.974=T 0.8716=T -0.0539=T 2.957=T 9.51067=T -2.65704=T 8.0171083404=T 11.7226407266=T 0.074262223=T pbc="F F F"
C        2.34708014      -0.49087250      -1.58705732
C        2.46696824       0.01218219      -0.14480661
C        3.32331231       1.25853656      -0.00548398
N        2.80898596       2.52349712      -0.64605049
C        3.22592676       3.28968316       0.57954207
C        3.41693681       1.98125520       1.37676066
N        4.56656863       1.89623182       2.26008774
H        1.70488449      -1.38087737      -1.64830193
H        3.33420137      -0.75882137      -1.99285255
H        1.92114622       0.28045301      -2.24459662
H        2.90046649      -0.77979965       0.49139169
H        1.46267632       0.22295199       0.26657422
H        4.33894657       1.05773580      -0.40174587
H        1.78414403       2.47576956      -0.66598631
H        4.18169555       3.80979469       0.39687811
H        2.49863307       4.02114591       0.95949438
H        2.51253545       1.75859296       1.96901921
H        5.43507312       1.96547006       1.72248444
H        4.58995846       1.00178085       2.75388917
