14
Properties=species:S:1:pos:R:3 -1484.9175201415594=T 10.589619=T 11.5157=T -10.3925=T -8.1791=T -10.101=T 1.0266=T -0.6826=T 0.824=T 9.56957=T -0.2951=T 5.3841416444=T 6.7289929892=T 0.418192823=T pbc="F F F"
O        1.18028700      -0.05145448       0.23553210
C        2.51235449       0.21622792      -0.23834471
C        2.61367169      -0.59222373      -1.54963084
C        3.95882891      -0.60323242      -2.10901271
N        5.03977459      -0.61530269      -2.54631593
C        2.73128846       1.68791086      -0.44144977
C        3.68132838       2.39319876       0.18104264
H        1.02646678       0.52892332       1.00189426
H        3.26371400      -0.17432005       0.47337774
H        1.91101498      -0.17920289      -2.29006135
H        2.30073396      -1.62717897      -1.34363078
H        2.03468844       2.17603735      -1.13247898
H        4.38420814       1.91640782       0.86869065
H        3.80009017       3.46431918       0.01415767
