19
Properties=species:S:1:pos:R:3 -1872.9102980741668=T 12.293424=T 13.38923=T -8.591=T -6.5356=T -9.077=T 0.909=T 0.0343=T 1.338=T 8.45004=T -0.74743=T 6.1930263084=T 0.351223002=T pbc="F F F"
C        3.93571695       2.62152384      -3.09503832
O        4.97514884       2.16479125      -2.23119773
C        4.61948401       1.86290151      -0.94047611
C        3.37511408       1.96185636      -0.43570483
C        5.82138032       1.39590381      -0.14649291
C        6.40154799       0.09207704      -0.72163446
C        6.89751587       2.49168211      -0.05765384
H        4.40826375       2.81257953      -4.06533465
H        3.48369945       3.55148154      -2.71254811
H        3.15044006       1.85607843      -3.20862584
H        2.51708275       2.29586748      -1.01454218
H        3.20495775       1.69553114       0.60531656
H        5.45107762       1.19072537       0.87100320
H        6.77789128       0.25044063      -1.74219859
H        5.63995126      -0.69980523      -0.75644551
H        7.23719841      -0.26135820      -0.10010231
H        7.29662244       2.72699812      -1.05443626
H        7.73257553       2.15656918       0.57469898
H        6.48861164       3.41621609       0.37418291
