13
Properties=species:S:1:pos:R:3 -1274.290740753592=T 7.972454=T 8.78949=T -9.8523=T -7.7199=T -11.907=T 0.9523=T 0.0248=T 2.729=T 11.69875=T -2.45182=T 9.1807417476=T 11.0266205184=T 0.316970039=T pbc="F F F"
C        0.82763711      -0.02283275      -0.23423835
C        2.30220376      -0.12048422       0.08765270
C        2.66935689      -0.06463591       1.55381300
C        3.21587979      -0.77461756      -0.86911640
O        3.16458967       0.66438916      -0.78204801
H        0.66475316      -0.02762342      -1.31951546
H        0.40714272       0.90819809       0.17449830
H        0.27574198      -0.86544369       0.20885205
H        3.75831382      -0.10235849       1.68461058
H        2.21913618      -0.90690580       2.10040485
H        2.29882379       0.86759545       2.00587356
H        2.81436135      -1.20038725      -1.79592511
H        4.14370976      -1.23105362      -0.50542171
