17
Properties=species:S:1:pos:R:3 -1690.7964748076474=T 12.277888=T 12.88298=T -8.6516=T -6.7985=T -9.306=T 0.8206=T -0.7562=T 0.2=T 8.63479=T 0.24206=T 4.7330539626=T 5.5875282788=T 0.453377913=T pbc="F F F"
C        1.15928829       1.15770429      -0.82153537
N        2.44074038       0.50197250      -0.64595543
C        3.53898494       1.19503248      -0.15721254
N        3.60468028       2.46959213       0.06485724
C        4.76207638       0.36556359       0.09151110
C        5.73176671       0.91764127       1.09754532
C        4.98436320      -0.78159564      -0.57616785
H        0.42667611       0.41689145      -1.16340793
H        1.22779994       1.94067837      -1.59232866
H        0.78157379       1.61959246       0.10935784
H        2.41779013      -0.48874783      -0.42317086
H        2.70799409       2.93065856      -0.13441469
H        5.26860491       0.98089715       2.09412361
H        6.00616104       1.94550681       0.82385701
H        6.63291261       0.29489663       1.16025604
H        4.31019330      -1.14293411      -1.35391295
H        5.88261389      -1.37173012      -0.38779189
