17
Properties=species:S:1:pos:R:3 -1655.1391230232941=T 12.063278=T 13.13712=T -9.2458=T -6.9833=T -9.759=T 0.8341=T -0.1997=T 2.321=T 9.37517=T -1.90121=T 4.368708703=T 10.8987041622=T 0.359025706=T pbc="F F F"
N        0.94500595      -0.05879536       0.23695976
C        2.40791179      -0.13563022       0.10645620
C        3.01438806       1.26784265       0.09849214
C        4.55667385       1.29571788      -0.03964028
N        5.14380058       2.64434963      -0.18010536
C        5.19674305       0.60617471       1.08497620
C        5.68828066       0.04094498       2.03989370
H        0.55419779      -0.99808301       0.33627138
H        0.53761140       0.32946716      -0.61819172
H        2.75316056      -0.68349060      -0.79603551
H        2.79608564      -0.68640703       0.97714092
H        2.71837056       1.79543184       1.01923220
H        2.60029253       1.83960691      -0.75139344
H        4.82545417       0.74141894      -0.95896625
H        4.95777266       3.17876765       0.67383525
H        4.66230914       3.13446050      -0.93929161
H        6.14132162      -0.45761662       2.87231643
