15
Properties=species:S:1:pos:R:3 -1581.0881612529715=T 10.538868=T 11.61462=T -9.007=T -6.9234=T -8.876=T 1.2768=T -0.3592=T 1.111=T 8.38746=T -0.46621=T 5.5732822874=T 0.207563912=T pbc="F F F"
C        1.01895249       0.08248727      -0.61251852
C        2.14695070      -0.06420637       0.36791158
C        2.46879488      -1.36695705       1.17536984
C        3.85134315      -0.65893472       1.12887196
O        3.50749054      -0.20136967      -0.23591613
C        3.58098037       0.60689227       1.96409603
C        2.41452958       1.01661419       1.44303217
H        0.05645348       0.11062746      -0.08168106
H        1.00514453      -0.75891739      -1.31762013
H        1.12531257       1.01550317      -1.18388884
H        2.43120505      -2.26628687       0.54463210
H        1.98384457      -1.51274719       2.15057592
H        4.81208385      -1.18021639       1.20401825
H        4.19870037       1.02533082       2.75471993
H        1.78753387       1.87400046       1.67732690
