18
Properties=species:S:1:pos:R:3 -1751.5201496153752=T 11.168632=T 12.31158=T -8.9701=T -6.8187=T -10.268=T 0.8264=T -0.235=T 2.733=T 9.71778=T -2.49173=T 8.131249852=T 13.3665463034=T 0.096767314=T pbc="F F F"
C        0.90873487      -0.00396739       0.03381283
C        2.42830394       0.00450135       0.03303507
C        3.20197651       1.04289790       0.90107218
C        4.25380973      -0.04156375       1.25531878
N        5.46568886       0.07778530       0.44792461
C        3.19133435      -1.10846498       0.80504751
O        3.61752457      -2.28392405       0.13967431
H        0.51842052      -0.88443241      -0.49817876
H        0.49609128       0.89259931      -0.45324123
H        0.51998344      -0.03297652       1.06410102
H        2.80105246       0.03900940      -1.00621028
H        2.62064980       1.35455330       1.78113947
H        3.59239998       1.94005820       0.40080139
H        4.56050109      -0.10423360       2.30999623
H        5.25675436       0.22809520      -0.54229518
H        6.04699231      -0.76036827       0.52698198
H        2.59962004      -1.44955331       1.67019976
H        4.27543190      -2.00673569      -0.52685971
