12
Properties=species:S:1:pos:R:3 -1335.6798077475526=T 13.454343=T 12.92611=T -8.4762=T -6.6949=T -8.329=T -0.2204=T -1.771=T -0.711=T 7.80366=T 1.38679=T 3.8103873464=T 5.987717891=T 0.452463171=T pbc="F F F"
C        2.83856464      -1.29065381       0.39390646
C        2.35869163      -0.05963870       0.14779431
C        3.12316124       1.17408764       0.08692958
N        2.57901905       2.34988231      -0.15936391
C        3.51799596       3.34548884      -0.16038340
C        4.81196312       2.95534285       0.08636340
S        4.87650403       1.24633107       0.33650646
H        2.17507070      -2.15393729       0.41725305
H        3.89852983      -1.47695360       0.57850602
H        1.29130024       0.09176587      -0.03276235
H        3.20875461       4.37262287      -0.35105876
H        5.71168496       3.56180197       0.13401913
