13
Properties=species:S:1:pos:R:3 -1303.5955473146842=T 11.179198=T 11.44801=T -9.4563=T -7.2=T -9.72=T 0.3255=T -1.3737=T -0.227=T 9.19319=T 0.78862=T 3.9023725598=T 11.3972394696=T 0.359971734=T pbc="F F F"
N        1.92956463      -0.28194056       1.39941694
C        2.42611094       0.06400596       0.05917913
C        2.94213914       1.49482922       0.02912668
N        2.18403427       2.55039249       0.07081209
O        0.82139240       2.18315679       0.16363349
C        4.34139271       1.72668377      -0.06166930
C        5.55070741       1.82627260      -0.14808636
H        1.71022218      -1.27968328       1.42799635
H        1.05520158       0.21988656       1.57142037
H        1.67268121      -0.02408400      -0.74846047
H        3.26202443      -0.60393283      -0.18503450
H        0.38663669       3.05410601       0.15796513
H        6.61298242       1.94063727      -0.21793957
