15
Properties=species:S:1:pos:R:3 -1477.6908411773634=T 10.428886=T 10.8095=T -8.4681=T -6.465=T -9.113=T 1.3158=T -0.3649=T 0.585=T 8.61429=T -0.00762=T 4.996511814=T 5.1884297434=T 0.132782972=T pbc="F F F"
C        2.07990671      -0.29357416      -1.54439319
O        2.22766238       0.21218827      -0.22280272
C        3.28000425       1.19157666      -0.11662505
C        3.44678636       1.57358619       1.35959636
N        2.64135351       2.80523080       1.46374438
N        2.54381447       3.39929116       0.22437060
C        2.89120501       2.54313975      -0.68584257
H        1.32606368      -1.08926347      -1.49541955
H        3.02989457      -0.72032246      -1.92020151
H        1.73286130       0.47877488      -2.25315464
H        4.20201512       0.77052802      -0.55874208
H        4.50918858       1.77238200       1.58149690
H        3.07089673       0.78052071       2.01888142
H        2.90147569       3.48028939       2.17988115
H        2.80325165       2.80490226      -1.73834949
