17
Properties=species:S:1:pos:R:3 -1654.4073081270426=T 10.869618=T 11.7665=T -9.1498=T -7.0612=T -10.517=T 0.774=T -0.1923=T 0.631=T 9.58574=T 0.02965=T 4.3713248076=T 12.1647748026=T 0.142743=T pbc="F F F"
C        1.73907113      -0.34277924       1.10509973
N        3.05739913       0.17154862       0.71723436
C        3.04943770       1.55912722       0.21874947
C        2.47504073       2.53700076       1.25223868
C        4.47635665       2.02212078      -0.13775137
N        5.46749149       1.31267624       0.47707204
O        4.67635415       2.96782491      -0.89742347
H        1.82023812      -1.42296539       1.28596574
H        0.95129916      -0.17701982       0.34261512
H        1.40877296       0.12289232       2.04317265
H        3.41454886      -0.42253022      -0.03637280
H        2.46403228       1.66754190      -0.71721070
H        2.99534775       2.43255508       2.21599333
H        1.40201861       2.36840539       1.41249484
H        2.60620781       3.56340810       0.88723236
H        5.20447477       0.60301781       1.15819044
H        6.42780871       1.62389555       0.37742958
