18
Properties=species:S:1:pos:R:3 -1721.6272458271528=T 10.55201=T 11.88503=T -10.0217=T -7.7933=T -11.943=T 0.9112=T -0.0573=T 2.909=T 11.436=T -2.64727=T 9.7247303226=T 10.546373146=T 0.094293434=T pbc="F F F"
C        1.08235229      -0.21431202       0.01819247
C        2.60959023      -0.13222432      -0.00073100
C        3.13076797       1.30682638       0.02531137
C        4.65971518       1.42034222       0.05146208
C        5.13761168       2.86831526      -0.03995866
O        5.22433769       0.76097111       1.20283587
H        0.73479598      -1.25733513      -0.00127012
H        0.64148777       0.30002109      -0.85019190
H        0.66944522       0.25653874       0.92414633
H        2.99682220      -0.63776063      -0.90259800
H        3.02951301      -0.67936068       0.85782603
H        2.72337642       1.83588740       0.90907113
H        2.75237517       1.85505071      -0.85607168
H        5.07130299       0.85116239      -0.80037300
H        4.73832023       3.46450005       0.79745177
H        4.80021505       3.34078213      -0.97438018
H        6.23438535       2.91261247      -0.00285910
H        4.94994557       1.26899284       1.98823659
