15
Properties=species:S:1:pos:R:3 -1572.901732395319=T 11.98213=T 13.70372=T -9.1521=T -6.9961=T -9.085=T 0.9054=T -0.2261=T 2.352=T 8.65848=T -1.8563=T 4.1149465568=T 9.279794163=T 0.577298932=T pbc="F F F"
O        1.12338485      -0.09837427       0.63189888
C        2.33270396       0.01875911      -0.14337648
C        2.87614082       1.36147679      -0.02528607
C        3.36031255       2.47620306       0.05044873
C        3.91468060       3.79428393       0.14316998
C        3.96696660       4.69014934      -1.09098124
C        3.00194181       5.00978786       0.01218602
H        0.80261993      -1.01058543       0.52090834
H        2.13480635      -0.19927626      -1.21072672
H        3.09194378      -0.70777933       0.20449803
H        4.74729398       3.90253979       0.84276606
H        3.56864995       4.27212849      -2.01467747
H        4.85244791       5.31507937      -1.20708663
H        3.21688531       5.85624587       0.66452241
H        1.94489159       4.80798167      -0.15587383
