15
Properties=species:S:1:pos:R:3 -1529.9066355159046=T 9.896871=T 11.22579=T -9.5976=T -7.4003=T -10.89=T 0.9841=T 0.0767=T 2.473=T 10.60076=T -2.09435=T 8.1817989442=T 10.5035607802=T 0.160019841=T pbc="F F F"
O        0.94432157       0.33808042      -0.68980315
C        2.25543825       0.15961461      -0.20318080
C        3.20121661      -0.71763598      -1.00056461
C        3.34091599       0.79391679      -1.02087990
C        2.36294133       0.15982371       1.29222066
C        1.41070147       0.89417965       2.13927055
O        1.29923175      -0.54345593       1.98169692
H        0.40401488      -0.34638200      -0.24697673
H        2.78253835      -1.18979018      -1.88875763
H        3.94842861      -1.30349079      -0.46306454
H        4.18394964       1.25029828      -0.50052039
H        3.01155529       1.31610949      -1.91901932
H        3.36599823      -0.04007973       1.68956670
H        0.61704848       1.47267226       1.65813960
H        1.72027956       1.22306941       3.13628264
