11
Properties=species:S:1:pos:R:3 -1167.8287668028872=T 8.827253=T 9.46624=T -9.4205=T -7.1589=T -9.435=T 1.0752=T 0.0639=T 2.29=T 9.07184=T -1.88751=T 4.3084763042=T 12.4854769902=T 0.530404562=T pbc="F F F"
C        0.99514476       0.03739333      -0.09799730
C        2.20924892       0.00633605      -0.04389955
C        3.64160672      -0.02920323       0.01840213
C        4.43450536      -0.75285773      -1.06387953
C        4.46924829       0.74666580      -0.99979936
H       -0.07384866       0.06464152      -0.14553795
H        4.05667611      -0.08200032       1.02764653
H        3.85738350      -1.21699516      -1.86275104
H        5.31339491      -1.31059355      -0.74069483
H        5.37242582       1.23324758      -0.63177302
H        3.91606425       1.30345571      -1.75519608
