11
Properties=species:S:1:pos:R:3 -1305.3304253717474=T 9.707454=T 9.55606=T -9.0752=T -7.226=T -10.024=T 0.2195=T -1.4413=T -1.052=T 9.07192=T 1.77162=T 3.3973527846=T 6.6711535202=T 0.570154=T pbc="F F F"
O        0.89561569       0.02477501       0.13270120
C        2.12899838       0.03585556       0.03787747
C        2.93055372       1.26498656      -0.01798013
C        4.27578011       1.22135755      -0.12193133
O        4.99559425       0.06162810      -0.18320298
C        4.29573266      -1.11086347      -0.13505284
C        2.95145656      -1.17867367      -0.03176175
H        2.42292385       2.22800865       0.02610545
H        4.93469915       2.08772101      -0.16825969
H        4.96937794      -1.96524394      -0.19106754
H        2.46040768      -2.15069136       0.00141216
