19
Properties=species:S:1:pos:R:3 -1813.5760233775354=T 11.466182=T 13.2979=T -9.7199=T -7.4479=T -11.656=T 0.9863=T -0.017=T 2.995=T 10.94882=T -2.78227=T 9.3958078632=T 11.1345999258=T 0.158198278=T pbc="F F F"
C        3.16292340      -0.47002803      -0.92978686
O        4.19385158       0.45356192      -0.61841657
C        3.72242175       1.51857336       0.20248151
C        4.87411525       2.47201080       0.48336587
C        4.45525536       3.64643241       1.37116862
C        5.60772695       4.59950234       1.65122017
O        5.12000432       5.65507376       2.49225642
H        3.60847182      -1.25617066      -1.55257046
H        2.33980098       0.01224658      -1.49160488
H        2.73847125      -0.93052551      -0.01684407
H        3.31450886       1.11288181       1.15211203
H        2.89337944       2.05229791      -0.30790786
H        5.26568852       2.84049259      -0.47915316
H        5.68939159       1.90384369       0.96093730
H        4.06583252       3.27889814       2.33506652
H        3.63926411       4.21586217       0.89611672
H        5.99831593       5.00541649       0.69817027
H        6.43348178       4.05304523       2.14636682
H        5.85669459       6.26365500       2.66833160
