19
Properties=species:S:1:pos:R:3 -1876.9261457244215=T 12.5152=T 13.7034=T -9.4021=T -7.2361=T -9.111=T 1.1578=T -0.1133=T 1.297=T 8.57039=T -0.66465=T 6.2496631132=T 0.407638955=T pbc="F F F"
C        2.38706545      -1.10780120      -1.09587968
C        3.14877372      -0.48974267       0.08666386
C        3.13639188       1.01131246       0.07076162
C        4.22263634       1.80015134       0.04028307
C        4.19989752       3.29970649      -0.02400414
C        4.62454582       3.80770358      -1.41169584
O        3.73018331       3.38641107      -2.44166509
H        2.38562845      -2.20535640      -1.03383338
H        2.84574928      -0.82244650      -2.05405742
H        1.33946548      -0.77146804      -1.11343251
H        4.18988928      -0.85049979       0.09587113
H        2.68647810      -0.84178695       1.02611466
H        2.14620428       1.48661331       0.09392167
H        5.21367551       1.32679090       0.01573118
H        4.88866424       3.72570086       0.72611792
H        3.18880146       3.67613260       0.19827738
H        5.65977835       3.47679825      -1.62788667
H        4.61473858       4.90742105      -1.43151468
H        3.57415295       2.43282967      -2.29825307
