16
Properties=species:S:1:pos:R:3 -1598.3756502906028=T 11.174592=T 12.05997=T -9.371=T -7.1474=T -9.456=T 0.8891=T -0.2217=T 1.329=T 8.9425=T -0.75817=T 6.6137356036=T 0.454991229=T pbc="F F F"
N        0.83590682       0.11160237       0.21546909
C        2.27935344       0.07607838       0.00055913
C        3.10731438       1.03419578       0.87203974
O        3.96327584      -0.04850498       1.33937155
C        3.05780888      -1.03827009       0.76642987
C        3.73420014      -2.11593507      -0.00949932
C        5.05078347      -2.17436414      -0.23768460
H        0.37804795      -0.59091455      -0.37230710
H        0.46458972       1.01426429      -0.09486229
H        2.59711435       0.11078407      -1.05765108
H        2.51924749       1.47032918       1.69874484
H        3.68638277       1.81675795       0.35869177
H        2.40797133      -1.47199933       1.55236950
H        3.06887252      -2.89954695      -0.39061663
H        5.71488641      -1.40423146       0.15777356
H        5.49201449      -2.99194545      -0.80807803
