17
Properties=species:S:1:pos:R:3 -1681.104385857191=T 12.541485=T 12.56888=T -8.0643=T -6.2792=T -8.596=T 1.1511=T -0.4145=T 0.64=T 7.85727=T -0.10655=T 4.8467491246=T 5.179577143=T 0.303976927=T pbc="F F F"
C        1.24852238       0.15082802      -0.31538628
N        2.64345097       0.07764503       0.11500002
C        3.11850639      -1.18972539       0.47459176
N        4.30398204      -1.67803544       0.51791823
C        3.44271478       1.23222836      -0.03503674
C        4.70349462       1.33159888       0.79431699
C        3.04507031       2.26997720      -0.80444806
H        0.78751624       1.07176829       0.06799235
H        0.70866079      -0.71677548       0.08262494
H        1.15537080       0.13786667      -1.41415551
H        2.28866511      -1.84923762       0.76768143
H        5.00916427      -1.01589108       0.17538681
H        4.60341755       0.81109286       1.75524126
H        4.91225280       2.39078661       0.98938210
H        5.58507017       0.92206116       0.27933205
H        2.15286493       2.24735807      -1.42589194
H        3.63986586       3.18128386      -0.82043940
