14
Properties=species:S:1:pos:R:3 -1490.4319945738866=T 12.997914=T 11.99136=T -8.4473=T -6.6965=T -8.928=T -0.4298=T -2.0139=T -1.109=T 8.2815=T 1.73813=T 3.4306802214=T 4.1716205574=T 0.6933974=T pbc="F F F"
N        1.16429557      -0.08265760       0.21318273
C        2.52920682       0.02304859       0.05192482
C        3.26181725      -1.23857215      -0.12358816
C        2.76703611      -2.46167143       0.13400992
C        3.15126603       1.25192802       0.10681944
C        4.57716598       1.48379409       0.07595033
O        5.09175497       2.60422277       0.11291404
H        0.63198004       0.78218113       0.20427310
H        0.70140964      -0.86683451      -0.23658409
H        4.28093901      -1.15048407      -0.49931744
H        1.77271670      -2.61895535       0.55591561
H        3.37001859      -3.35249176      -0.04048936
H        2.53791300       2.15325615       0.19833315
H        5.23199030       0.57910612       0.01327591
