18
Properties=species:S:1:pos:R:3 -1752.9389584873581=T 11.461805=T 12.67774=T -8.8832=T -6.6978=T -10.287=T 1.0037=T -0.9036=T 0.011=T 10.03366=T 0.6343=T 3.6869344862=T 8.3298258296=T 0.100950024=T pbc="F F F"
C        1.95919571      -0.59365373       0.61719774
N        3.41812130      -0.56787614       0.51256770
C        3.90324493       0.62845547      -0.17542559
C        5.43053265       0.69492402      -0.18241172
C        6.10705144      -0.41131888      -1.01056935
C        5.94322959       2.05115031      -0.62438532
O        5.25847211       3.02621857      -0.87130272
H        1.64039233      -1.53992541       1.07561091
H        1.43116315      -0.47978187      -0.35287904
H        1.62693839       0.22459786       1.27419924
H        3.72143087      -1.39948072       0.00030012
H        3.51548312       1.50986270       0.35930070
H        3.52896350       0.71728619      -1.21990793
H        5.78379184       0.58715638       0.86374351
H        5.72317393      -0.41926810      -2.04205170
H        5.93406053      -1.40059724      -0.56633060
H        7.19645924      -0.26424760      -1.05625687
H        7.06267539       2.10694817      -0.70576907
