16
Properties=species:S:1:pos:R:3 -1598.9084416682283=T 11.548145=T 12.49486=T -8.9203=T -6.7998=T -9.291=T 0.8081=T -0.273=T 1.27=T 8.79393=T -0.70237=T 6.4663782426=T 0.526407804=T pbc="F F F"
O        1.19227446       0.66230889      -0.94030456
C        2.25570451      -0.00123414      -0.24448330
C        3.35089080       0.99733973       0.05627659
N        3.71017691       2.03870597      -0.91278806
C        3.02940034       2.42628517       0.36533714
C        3.83084446       3.20406979       1.32897232
C        3.32227594       4.08282635       2.20311580
H        0.55842849      -0.01024927      -1.23518857
H        2.67546665      -0.81520879      -0.86514978
H        1.89753513      -0.44427790       0.70380194
H        4.21018622       0.54704173       0.56624370
H        2.99195193       2.04149870      -1.64814300
H        1.97025751       2.69087939       0.29305264
H        4.91032506       3.02035473       1.29761535
H        2.25042326       4.29134768       2.24234091
H        3.95986833       4.62259196       2.90375088
