13
Properties=species:S:1:pos:R:3 -1365.7524090850895=T 9.973526=T 10.3683=T -8.226=T -6.3032=T -8.805=T 0.9023=T 0.0144=T 0.304=T 8.29082=T 0.22427=T 4.7502260236=T 6.2240972=T 0.267840798=T pbc="F F F"
C        3.08270533      -1.14466751       0.51883787
O        2.31470956       0.04032082       0.29795555
C        3.05343483       1.18240605       0.17732540
C        2.50255031       2.44164660      -0.04049178
N        3.56854393       3.29302259      -0.09843356
N        4.76088381       2.68980807       0.06359815
C        4.45452548       1.39008444       0.23406415
H        2.36086711      -1.96550019       0.59381444
H        3.65998716      -1.07687182       1.45619255
H        3.77059870      -1.33657689      -0.32167603
H        1.47502236       2.76772325      -0.15179069
H        3.54266291       4.29595708      -0.24619980
H        5.25108851       0.66916750       0.38854377
