17
Properties=species:S:1:pos:R:3 -1632.1902912827177=T 10.614346=T 11.5566=T -8.5485=T -6.5279=T -10.091=T 0.9383=T 0.0234=T 3.011=T 9.42915=T -2.67154=T 8.010487488=T 11.7062993718=T 0.143445132=T pbc="F F F"
C        1.16632130       0.08739875      -0.13448373
N        2.62432097       0.05789684      -0.08387443
C        3.31412086      -0.63811793      -1.17793470
C        3.41583624       0.85169056      -1.05177382
C        2.73985078       1.72951802      -2.08910506
C        4.67038203       1.45692952      -0.45153467
H        0.80050832       0.98692521       0.38263726
H        0.78472206      -0.79056422       0.40767716
H        0.73176155       0.06836847      -1.15257564
H        2.69910281      -1.02527036      -1.99972422
H        4.14951787      -1.28194274      -0.88642988
H        1.86237021       1.25528326      -2.54547406
H        3.44712102       1.96216389      -2.89938930
H        2.42309391       2.68641765      -1.64393190
H        5.08618861       0.79394377       0.31788455
H        4.44626543       2.42700382       0.01964575
H        5.43497601       1.62521548      -1.22592330
