17
Properties=species:S:1:pos:R:3 -1681.4488473965791=T 10.379444=T 11.56178=T -9.4977=T -7.3853=T -11.425=T 0.8942=T -0.1224=T 2.537=T 11.21146=T -2.23978=T 8.915089344=T 13.262906406=T 0.059143294=T pbc="F F F"
C        0.96050784       0.04566094       0.16832595
C        2.45504879      -0.07067897      -0.06783313
C        2.81426795      -0.05085141      -1.54873402
O        3.19299014       0.98549604       0.65925715
C        4.11289622       0.01216651       1.22441016
C        3.21518806      -1.15162695       0.77115224
O        3.78176870      -2.28655828       0.14902624
H        0.73824476       0.05643024       1.24409999
H        0.43335463      -0.80318611      -0.29209187
H        0.56922552       0.97403270      -0.27338772
H        3.90340890      -0.06810312      -1.70450030
H        2.43437136       0.87295949      -2.00729961
H        2.37031986      -0.90891699      -2.07403246
H        5.09691091       0.02532416       0.71624234
H        4.26306256       0.16027497       2.30490659
H        2.58520631      -1.54317036       1.58216260
H        4.37408749      -1.97866286      -0.56114416
