13
Properties=species:S:1:pos:R:3 -1390.1732629019868=T 10.098081=T 10.52708=T -8.6522=T -6.6804=T -8.356=T 0.8974=T -0.2965=T 0.693=T 7.93267=T -0.00416000000001=T 4.6769007032=T 6.8022563166=T 0.272398916=T pbc="F F F"
O        2.67270106      -0.84326858      -1.03564246
C        2.38819420      -0.08558664       0.15597353
C        2.85589856       1.33122494       0.07993813
N        2.08369642       2.41107256       0.12424332
C        2.93736896       3.48572800      -0.00602514
C        4.24192716       3.05819378      -0.13825343
N        4.17709402       1.68129110      -0.07505793
H        2.19722268      -0.40994840      -1.76803712
H        2.89977278      -0.63132767       0.96357592
H        1.31151138      -0.06322305       0.38754624
H        2.56975470       4.50801887       0.00152495
H        5.17938831       3.58838099      -0.26586327
H        4.95306978       1.03507410      -0.18579274
