13
Properties=species:S:1:pos:R:3 -1349.402922133054=T 9.530565=T 10.47937=T -9.8796=T -7.6597=T -11.023=T 0.7224=T -0.4262=T 1.37=T 10.29062=T -0.93787=T 5.3811659804=T 12.5596082196=T 0.249980906=T pbc="F F F"
O        0.91700796      -0.03491219       0.38532247
C        2.27561120      -0.00599269      -0.02473086
C        3.15564609       1.04749243       0.72439150
N        3.51319876      -0.02360252       1.69245719
C        3.18719372      -1.06327077       0.68000376
C        2.31212407       0.02527149      -1.48478168
N        2.41250330       0.05118241      -2.64611536
H        0.92751308      -0.05518760       1.36119046
H        2.60754025       1.90376357       1.14431913
H        3.98646266       1.40292209       0.09083880
H        4.48208278      -0.01591732       2.01577329
H        4.02785056      -1.36678690       0.03258264
H        2.66516557      -1.95241201       1.06323866
