14
Properties=species:S:1:pos:R:3 -1435.0308752289611=T 9.774817=T 10.82646=T -9.5615=T -7.4984=T -10.648=T 0.8127=T -0.275=T 0.22=T 10.07861=T 0.3497=T 4.313348954=T 6.2090205024=T 0.209779551=T pbc="F F F"
O        0.81143343       0.27932085      -0.45404957
C        2.11764300       0.03230422       0.00132633
C        2.91427475      -0.94770043      -0.79596793
C        3.29810598       0.52119276      -0.82496995
N        4.50564629       0.92749937      -0.16396624
C        4.61120610       2.04069942       0.62889790
O        5.65678673       2.46903909       1.09957953
H        0.55331363       1.17252221      -0.16349820
H        2.25506403       0.02142570       1.08778496
H        2.44614002      -1.34460812      -1.69624189
H        3.56417818      -1.63427797      -0.25360910
H        3.03325005       1.05562787      -1.74314268
H        5.38735834       0.48415238      -0.42404494
H        3.61776947       2.51369266       0.81436179
