15
Properties=species:S:1:pos:R:3 -1583.5705016328793=T 11.252265=T 12.28014=T -9.64=T -7.4663=T -9.972=T 0.8956=T -0.993=T -0.007=T 9.99737=T 0.70287=T 3.7119300638=T 10.8282305198=T 0.676025409=T pbc="F F F"
C        0.96681135      -0.02507276       0.02190381
C        2.51666316       0.00834993       0.00371842
C        3.07593264      -0.75484022       1.23149592
C        2.96176008      -0.77565982      -1.24771639
O        3.62411995      -0.35888483      -2.16984905
C        3.00576136       1.38317028      -0.01905724
C        3.40829741       2.52733471      -0.02212996
H        0.55225249       0.52520704      -0.83261109
H        0.59885284       0.43820810       0.94687400
H        0.60537648      -1.06359009      -0.01378468
H        2.70498892      -0.29076292       2.15486063
H        4.17320576      -0.72773656       1.24414972
H        2.74565103      -1.80415609       1.21342389
H        2.59107561      -1.83631193      -1.22554325
H        3.76870093       3.53550515      -0.03897474
