16
Properties=species:S:1:pos:R:3 -1590.7214204006195=T 10.225309=T 11.17237=T -9.628=T -7.3526=T -10.713=T 0.5485=T -0.4613=T 0.295=T 9.78761=T 0.39027=T 4.3964443712=T 8.6620711138=T 0.198541193=T pbc="F F F"
C        0.94170711      -0.38725129      -0.14463508
C        2.41929238      -0.60730468       0.11674496
O        2.84941019      -1.71951377       0.45608655
N        3.22414018       0.48201860      -0.04466432
C        4.69300328       0.44991023       0.01622137
C        5.28573378       0.01489765       1.36471860
O        5.35197063      -1.38803606       1.53812519
H        0.67585454       0.65711180      -0.35190372
H        0.37527690      -0.73998808       0.72637168
H        0.64456987      -1.00821608      -1.00058774
H        2.78598204       1.34716472      -0.34222891
H        5.02853576       1.47094386      -0.21485860
H        5.08135314      -0.22110343      -0.76818904
H        4.71743156       0.51163479       2.17818024
H        6.32233906       0.38665336       1.41360443
H        4.47735959      -1.73734163       1.23793441
