20
Properties=species:S:1:pos:R:3 -1897.1729915328374=T 11.792319=T 13.08035=T -9.4267=T -7.2415=T -10.663=T 0.7594=T -0.2073=T 2.774=T 9.96834=T -2.48231=T 8.4127104706=T 10.7323025516=T 0.107881132=T pbc="F F F"
C        0.95141654      -0.07545562       0.27333415
C        2.47931650      -0.05703673       0.35730886
C        3.11102016       1.28696523      -0.03804264
N        2.69381878       2.43486473       0.79859291
C        4.65900078       1.26532119      -0.01492824
C        5.28389178       0.34205211      -1.05173274
O        5.14794041       2.58514397      -0.25105630
H        0.55235362      -1.06321929       0.54377841
H        0.60685040       0.15386735      -0.74711256
H        0.49446680       0.65823830       0.95439105
H        2.88288634      -0.84838345      -0.29415936
H        2.80102897      -0.31000962       1.38410271
H        2.81173316       1.53731706      -1.07238936
H        2.70352924       2.17077162       1.78907649
H        1.73944446       2.72194565       0.57831633
H        4.97226023       0.92667504       0.99955124
H        4.92367890       0.59482258      -2.06040295
H        5.06372585      -0.71408551      -0.84615984
H        6.37473417       0.46955394      -1.04005123
H        4.46346290       3.15619143       0.16899309
