17
Properties=species:S:1:pos:R:3 -1680.2312795922242=T 11.771154=T 12.18521=T -7.8457=T -5.9231=T -8.647=T 0.9642=T -0.1436=T 0.878=T 8.02886=T -0.24322=T 4.6698211026=T 11.274976875=T 0.194012835=T pbc="F F F"
C        0.99389876      -0.04507642      -0.11138766
N        2.41777532       0.08929485      -0.38723995
C        3.06207416       1.23748967       0.25098441
C        4.50791847       1.34859098      -0.22888459
C        5.24861941       0.04384684       0.08772123
C        4.34255284      -1.14648622      -0.09700775
N        3.06714703      -1.12263718      -0.31174004
H        0.46894370       0.85255289      -0.46777322
H        0.78013140      -0.17574883       0.96849959
H        0.61755790      -0.92175052      -0.65065452
H        2.48600234       2.13842511      -0.00704106
H        3.03571432       1.12587894       1.35728250
H        4.99915131       2.21139365       0.24319788
H        4.50492851       1.52462636      -1.31525547
H        5.63913350       0.05033684       1.12103793
H        6.13279797      -0.07026978      -0.56129438
H        4.78457307      -2.14766719      -0.09264491
