14
Properties=species:S:1:pos:R:3 -1426.8533148012148=T 9.766481=T 10.52568=T -9.3737=T -7.1507=T -9.24=T 1.3106=T -0.0822=T 1.242=T 8.66265=T -0.6299=T 6.3255053494=T 0.416019997=T pbc="F F F"
C        0.85662413      -0.09445141      -0.56509874
C        2.28029733       0.03633222      -0.09385206
C        3.02434611      -0.99464758       0.33156226
C        2.83032180       1.42403735      -0.13862505
C        3.07809819       2.21047980       1.09221127
O        4.16705216       1.64810369       0.33825352
H        0.75432303       0.23744461      -1.61106878
H        0.17855155       0.53487750       0.03385090
H        0.51021638      -1.13352060      -0.50009227
H        2.61623772      -2.00561899       0.37043346
H        4.05754578      -0.84225438       0.64523169
H        2.58008862       1.99568154      -1.04413883
H        2.88917301       1.73270552       2.05960462
H        3.00480420       3.30335073       1.06425801
