15
Properties=species:S:1:pos:R:3 -1564.581010081388=T 10.609898=T 11.56204=T -9.3844=T -7.3347=T -10.456=T 0.5822=T -0.4926=T 1.459=T 9.72709=T -1.0476=T 5.3493635714=T 10.782132525=T 0.170514361=T pbc="F F F"
N        0.98063121      -0.04928871       0.38814132
C        2.13256750      -0.04596648       0.19585654
C        3.57294244      -0.07736449      -0.01771307
C        4.33136419       1.15742709       0.56918410
C        5.46635617       0.52886926       1.42587907
N        5.63077186      -0.86612941       0.98656506
C        4.27455414      -1.30342042       0.66982364
H        3.74133907      -0.13493808      -1.10488324
H        3.66497891       1.79379843       1.16582050
H        4.73267819       1.77107489      -0.24849387
H        6.41695441       1.07262662       1.34770723
H        5.17313429       0.52268316       2.48841254
H        6.20042244      -0.88691154       0.13561015
H        4.27379502      -2.19937867       0.03668691
H        3.74414015      -1.54264165       1.60506311
