16
Properties=species:S:1:pos:R:3 -1635.908322492384=T 11.429249=T 12.32472=T -9.2099=T -7.1983=T -9.774=T 0.9778=T -0.2658=T 0.391=T 9.45715=T 0.22641=T 4.332938742=T 6.3983347258=T 0.258208175=T pbc="F F F"
C        0.65657680       0.18183058       1.02271484
N        1.93499343      -0.25096366       0.48428756
C        3.05772613       0.53406085       0.53423535
O        3.09015426       1.63623860       1.08120645
C        4.28820910      -0.05668169      -0.16605660
C        4.56265605       0.66652428      -1.45603255
C        4.67523773       0.07614432      -2.65070619
H        0.25007364      -0.56408583       1.72079301
H       -0.07741039       0.36365352       0.22239364
H        0.83409140       1.12099779       1.56034541
H        1.97924904      -1.11808675      -0.04090715
H        4.18393067      -1.13800974      -0.34601530
H        5.12836668       0.09397221       0.53059064
H        4.66219339       1.75295007      -1.36860188
H        4.58154297      -1.00711567      -2.76543617
H        4.87337910       0.65503110      -3.55361106
