12
Properties=species:S:1:pos:R:3 -1355.3837226744347=T 9.009728=T 9.54904=T -9.8383=T -7.8108=T -11.261=T 0.9782=T -0.8685=T -0.585=T 10.89616=T 0.98156=T 4.1411447986=T 6.4540168384=T 0.292908342=T pbc="F F F"
O        1.28284887      -0.18686169       0.78272443
C        2.36668564      -0.04769030       0.24871238
C        3.10665580       1.25385678      -0.05662609
C        4.42009310       0.83564606      -0.73214214
C        4.38729469      -0.69091341      -0.78908541
O        5.22820764      -1.44298063      -1.24351345
N        3.17969425      -1.08983241      -0.20763804
H        3.24938040       1.79928121       0.88612502
H        2.46248823       1.87727119      -0.69139239
H        4.53068156       1.21719195      -1.75626560
H        5.31830562       1.14191941      -0.17899124
H        2.91229420      -2.06967815      -0.12135748
