14
Properties=species:S:1:pos:R:3 -1461.1662310107733=T 10.684121=T 11.05657=T -8.7252=T -6.7483=T -9.254=T 0.1692=T -1.4836=T -0.227=T 8.72893=T 0.76242=T 4.5868372728=T 6.7690032714=T 0.319602471=T pbc="F F F"
C        1.03548304       0.04631262      -0.13913048
C        2.51034464      -0.04309396       0.12390130
N        3.08262841       1.03901968       0.57487490
O        4.46720266       0.95486890       0.81922230
C        5.18450806       0.06675330      -0.07262438
C        4.56350405      -1.29491215      -0.03605007
C        3.21985738      -1.31479018       0.01266863
H        0.48946254      -0.69571263       0.46329288
H        0.81399404      -0.16261880      -1.19670902
H        0.66836788       1.04871702       0.11046202
H        6.21728575       0.08187787       0.29819804
H        5.16545115       0.49840627      -1.09507599
H        5.17525731      -2.19832683      -0.03924886
H        2.64380308      -2.24141114       0.04668875
