16
Properties=species:S:1:pos:R:3 -1506.9877695417133=T 10.290337=T 10.89437=T -8.4157=T -6.3397=T -9.807=T 0.9499=T 0.0097=T 3.278=T 9.06687=T -3.02106=T 7.8830670758=T 10.7968496632=T 0.094318207=T pbc="F F F"
C        0.98891093       0.00303824       0.05544663
N        2.43724989      -0.00153282       0.07675653
C        3.12994060       1.01206627       0.90918069
C        4.20746224      -0.04652284       1.25243610
N        5.40881596       0.09278676       0.43665309
C        3.12437455      -1.08530275       0.81707226
H        0.62158009      -0.86401117      -0.51345254
H        0.62556342       0.91208142      -0.44678976
H        0.54098791      -0.03412788       1.07491717
H        2.54529518       1.30992683       1.80471539
H        3.46752312       1.91328148       0.37307011
H        4.50397223      -0.09643409       2.30857927
H        5.14559814       0.08943315      -0.55358093
H        6.02441330      -0.71216043       0.57776928
H        3.44776173      -1.94239528       0.20271233
H        2.53812070      -1.45426689       1.68649437
