13
Properties=species:S:1:pos:R:3 -1388.696634253604=T 10.091032=T 10.60032=T -7.9509=T -5.9218=T -7.968=T 0.9454=T -0.1717=T 0.222=T 7.51067=T 0.41209=T 3.9142008242=T 6.873721847=T 0.237932218=T pbc="F F F"
C        0.91309415      -0.16817835       0.01941796
C        2.37683503       0.06434449       0.01175025
C        3.19052236       1.16825304       0.06345278
N        2.85943282       2.52320485       0.18886787
N        4.52369643       0.77121182       0.05496534
C        4.47213433      -0.52884611      -0.00535794
O        3.21765577      -1.04805418      -0.04273047
H        0.38940544       0.78512818       0.16905861
H        0.61629074      -0.84043937       0.83946308
H        0.55165359      -0.61108017      -0.92273429
H        3.67357778       3.10627071      -0.00132707
H        2.07776816       2.81003131      -0.39755771
H        5.29731340      -1.23354622      -0.03086842
