14
Properties=species:S:1:pos:R:3 -1380.8508046046838=T 9.311977=T 10.0055=T -9.8172=T -7.5416=T -9.723=T 0.8515=T -0.2549=T 1.262=T 9.19426=T -0.71209=T 6.7529470844=T 0.43619931=T pbc="F F F"
O        2.85214131      -0.76142363       1.14068244
C        2.40124126      -0.08325084      -0.04634509
C        2.97385586       1.33547296       0.00655659
O        2.53767806       1.98851692       1.21028317
C        4.47732968       1.35357130      -0.11121298
C        5.14045733       1.97782961      -1.08954129
H        2.33574539      -1.57644570       1.24408021
H        1.29941235      -0.01935715      -0.06389571
H        2.75223704      -0.59963988      -0.95729308
H        2.53910781       1.90993063      -0.82818771
H        2.66739018       1.33287608       1.92351379
H        5.02268366       0.81896192       0.67323683
H        4.61301302       2.52187029      -1.87802487
H        6.23046705       1.97205749      -1.13842229
