13
Properties=species:S:1:pos:R:3 -1331.2286986635797=T 12.934425=T 12.64051=T -7.5504=T -5.8507=T -8.902=T 0.6798=T -0.9696=T -0.181=T 8.09727=T 0.66286=T 4.7402699478=T 8.1604857508=T 0.239733394=T pbc="F F F"
C        0.87971096      -0.03961981      -0.00688503
N        2.32644647       0.00784116       0.05640114
S        3.17802111       1.51871745      -0.01279538
C        4.68819318       0.65639545      -0.02871358
C        4.53542522      -0.68745781      -0.00476587
C        3.14681224      -1.13278126       0.02008370
N        2.76425887      -2.37244907       0.01076344
H        0.47741962       0.97911853       0.03453504
H        0.47562119      -0.60078690       0.85043551
H        0.53653376      -0.51267084      -0.94177454
H        5.60982333       1.23238219      -0.05071978
H        5.35165501      -1.40483060      -0.01284676
H        1.74210905      -2.46407849       0.02084212
