14
Properties=species:S:1:pos:R:3 -1464.353220571411=T 9.367626=T 10.19658=T -9.399=T -7.3579=T -10.411=T 0.7135=T -0.2426=T 0.448=T 9.65917=T 0.14687=T 4.8271345394=T 13.309153184=T 0.118974189=T pbc="F F F"
C        1.10312414      -0.03618640       0.18743729
N        2.46502557       0.04638907      -0.30218457
C        3.25836800       1.25636154      -0.16719378
C        4.60695724       0.76281512      -0.70590238
O        4.59179632      -0.66630305      -0.48940174
C        3.27978063      -1.07342909      -0.31202323
O        2.95504410      -2.23647315      -0.19764883
H        0.77705506      -1.07885582       0.09750363
H        0.44026665       0.60527035      -0.41027527
H        1.03501260       0.26926482       1.24669087
H        3.32010164       1.58028267       0.89012547
H        2.84943151       2.08521891      -0.76369577
H        4.70496128       0.95059040      -1.78671186
H        5.47135526       1.18325463      -0.17837984
