13
Properties=species:S:1:pos:R:3 -1410.3721677818198=T 10.544281=T 11.03208=T -8.8143=T -6.9393=T -8.844=T 0.7845=T -0.0872=T 0.735=T 8.06852=T -0.12782=T 5.034203558=T 6.3573573528=T 0.305088106=T pbc="F F F"
C        2.15173375       0.15053516       0.90954021
C        2.43099727      -0.00833637      -0.63827158
C        2.53761690       1.51447865      -0.65848184
C        2.70566620       2.81939319      -1.11109781
C        2.53442021       3.58222917       0.08162734
N        2.28104243       2.83790653       1.18732347
N        2.29832871       1.59934760       0.66544715
H        2.91810676      -0.26544739       1.57785930
H        1.14651789      -0.14071205       1.24379526
H        1.59350076      -0.43362231      -1.20677679
H        3.35463028      -0.55211903      -0.87656189
H        2.91390524       3.19180235      -2.10779130
H        2.58629361       4.66353450       0.18218848
