18
Properties=species:S:1:pos:R:3 -1761.4011142236586=T 11.296471=T 12.41178=T -8.6396=T -6.541=T -9.999=T 1.085=T -0.6744=T 0.255=T 9.58375=T 0.47534=T 3.7189104756=T 8.070372726=T 0.14806526=T pbc="F F F"
C        2.87381138      -1.23620479       1.10333818
N        2.74063803       0.16632551       1.50987771
C        3.16735546       1.10987820       0.48325996
C        2.77068260       2.54056873       0.88689256
C        4.69084861       1.09382720       0.21418558
C        5.15558860       1.45791435      -1.17964289
O        5.47629948       0.80081480       1.10535945
H        2.55963356      -1.88119990       1.93532092
H        3.89758136      -1.53700854       0.80543266
H        2.19524926      -1.43410314       0.25909014
H        3.33314929       0.32327716       2.33220647
H        2.64545358       0.85010636      -0.45561244
H        3.26881859       2.81803089       1.82763142
H        1.68520084       2.58584030       1.04206814
H        3.05174597       3.27853178       0.12266293
H        4.57703060       2.29411666      -1.59745447
H        4.98296589       0.59225123      -1.83959492
H        6.22594690       1.69346321      -1.17893140
