7
Properties=species:S:1:pos:R:3 -667.8444091240374=T 4.309725=T 4.53616=T -10.3916=T -7.9787=T -12.207=T 1.1432=T 0.1868=T 3.182=T 11.33609=T -3.00351=T 9.2905065534=T 22.5044012936=T 0.969865629=T pbc="F F F"
C       -0.11615305       0.89582221      -0.06281006
C       -0.81009471      -0.40118034      -0.06316902
O        0.62563398      -0.33518528       0.01255526
H       -0.00902635       1.44795992      -1.00218591
H       -0.10911202       1.50110455       0.84951253
H       -1.20973989      -0.79640510      -1.00275757
H       -1.30982796      -0.74328596       0.84895478
