16
Properties=species:S:1:pos:R:3 -1594.2284090452893=T 10.719922=T 12.34587=T -9.6191=T -7.4383=T -11.049=T 0.9327=T -0.0255=T 2.661=T 10.51493=T -2.34929=T 8.6735150216=T 10.5564036134=T 0.195282713=T pbc="F F F"
C        0.94726518       0.16482832      -0.17456088
C        2.42075039       0.22155945       0.12426732
O        3.23956421      -0.84695620      -0.41166085
C        3.43368997       0.49743029      -0.91114144
C        4.74721209       1.13562146      -0.59828782
C        5.82297391       1.22091336      -1.62511955
N        5.00892202       2.41185326      -1.30436367
H        0.47467460       1.13365265       0.04612609
H        0.45576338      -0.60029655       0.44404878
H        0.77128750      -0.07946367      -1.23061666
H        2.68486846       0.48945661       1.15710802
H        3.08389401       0.66146250      -1.93925447
H        5.06876816       1.03786963       0.44381835
H        5.64730402       0.80672053      -2.62107759
H        6.85828872       1.17308943      -1.27913648
H        5.53589338       3.04012894      -0.69046916
