15
Properties=species:S:1:pos:R:3 -1515.1409472092605=T 13.843948=T 14.19135=T -8.1285=T -6.1736=T -8.501=T 0.7066=T -0.8719=T 0.102=T 8.09796=T 0.44354=T 3.693666926=T 11.1287229894=T 0.394718907=T pbc="F F F"
C        0.97429773      -0.06043976      -0.00080148
C        2.51269168      -0.04679004       0.03355969
C        3.07230344       1.29791170       0.02040576
C        3.49163502       2.44478442       0.01762425
C        4.08366157       3.72831840      -0.00254595
N        3.37477755       4.81425844       0.07477985
N        4.05128312       5.99571395       0.12441143
H        0.60109037      -1.09379063       0.01079301
H        0.60119551       0.43477397      -0.90708381
H        0.56171777       0.46902451       0.86821568
H        2.90993979      -0.61238487      -0.82709629
H        2.86937951      -0.57790324       0.93335576
H        5.18591238       3.77249143      -0.08323033
H        3.47235892       6.76484005      -0.20367644
H        4.99763564       6.00184167      -0.27659115
