20
Properties=species:S:1:pos:R:3 -1950.9496536108952=T 12.064317=T 13.17613=T -8.2177=T -6.1288=T -9.72=T 0.9154=T -0.0191=T 3.087=T 8.99109=T -2.85093=T 7.7553738944=T 10.8162782694=T 0.200341362=T pbc="F F F"
C       -1.53336782       0.75676498       0.12530162
C       -1.55592929      -0.76121171      -0.08950808
C       -0.32145626      -1.51996445       0.41671538
C        0.95972736      -1.19915134      -0.37810762
N        1.72247912       0.01080441      -0.04096198
C        0.98807087       1.20986983       0.39069769
C       -0.29181919       1.49165334      -0.40481753
H       -2.43497612       1.18812212      -0.34017986
H       -1.61746050       0.96975042       1.20641212
H       -1.66190125      -0.97080025      -1.16965513
H       -2.46119298      -1.16907890       0.38986056
H       -0.16198366      -1.33697055       1.49406163
H       -0.51764885      -2.60056617       0.31437692
H        1.66715929      -2.03784097      -0.28759542
H        0.68449210      -1.16001338      -1.44920316
H        2.41562884      -0.21772205       0.67186845
H        0.70774780       1.17963853       1.46637556
H        1.67809230       2.06275219       0.27639415
H       -0.48684939       2.57425830      -0.34680143
H       -0.12464239       1.26955564      -1.47274388
