13
Properties=species:S:1:pos:R:3 -1342.6350289672127=T 9.816451=T 9.87294=T -9.0094=T -7.0467=T -9.517=T 0.7017=T -1.041=T 0.188=T 9.18297=T 0.41479=T 4.2757068044=T 5.398846384=T 0.244988941=T pbc="F F F"
C       -1.50088816       0.61806785       0.27459863
C       -1.34359118      -0.77347133      -0.34884151
C       -0.25164099      -1.51138503       0.36965483
N        0.97526167      -1.12835381       0.44798962
N        1.41625264      -0.06120135      -0.31963518
C        0.77970127       1.04401962      -0.49837544
O       -0.43415143       1.52275298      -0.11480508
H       -2.42146533       1.11707275      -0.06352289
H       -1.52213757       0.55165873       1.37231502
H       -1.11709969      -0.66281833      -1.42292213
H       -2.29666408      -1.31541935      -0.26605187
H       -0.50415766      -2.39647484       0.96463341
H        1.31185052       1.82647212      -1.04809740
