17
Properties=species:S:1:pos:R:3 -1708.4795622649049=T 10.60691=T 11.76255=T -10.3914=T -8.2008=T -11.742=T 1.9568=T -0.0782=T -0.106=T 10.71457=T 0.64215=T 4.373420171=T 7.2784617454=T 0.100140191=T pbc="F F F"
C        0.27565482       0.48874742       0.08781430
C        1.52333959       0.17358586       0.91684285
C        2.76875885       0.92908445       0.44872488
C        2.71116294       2.43528306       0.63969724
O        3.92056503       0.46541533       1.24711475
C        4.60828107      -0.59106546       0.76390019
O        4.38599798      -1.20253413      -0.26088918
H       -0.56919498      -0.13337405       0.41345918
H        0.44497531       0.28406969      -0.98019042
H       -0.03330668       1.53906911       0.18645753
H        1.73918292      -0.90361375       0.85342936
H        1.34773962       0.40721128       1.97998189
H        2.98005734       0.67300027      -0.60096906
H        2.53862466       2.69022950       1.69534550
H        1.89611405       2.86342733       0.04143639
H        3.65043749       2.90298029       0.31683675
H        5.43509998      -0.81667620       1.46699784
