13
Properties=species:S:1:pos:R:3 -1348.6849019172569=T 10.498334=T 10.46173=T -8.2712=T -6.3766=T -8.892=T 0.813=T -0.8152=T -0.187=T 8.38634=T 0.65933=T 4.6619231944=T 4.7639884696=T 0.345694563=T pbc="F F F"
C        0.93736488       0.06174254       0.01977421
C        2.42761432       0.07150549      -0.02353859
C        3.28537067       1.11500685      -0.09816548
N        4.60151978       0.68735646      -0.25362983
O        4.59076705      -0.73497947      -0.09402092
C        3.24709611      -1.14045719      -0.02111965
N        3.01257038      -2.39725921       0.01857685
H        0.53028829       1.08051742       0.02212152
H        0.57168973      -0.45284861       0.92178859
H        0.51885939      -0.46906624      -0.85000778
H        3.08821450       2.18561799      -0.11705402
H        5.27848998       1.04908657       0.42796525
H        2.00152490      -2.56242260       0.04528984
