13
Properties=species:S:1:pos:R:3 -1333.1955950338931=T 9.658427=T 9.79903=T -9.507=T -7.4619=T -9.922=T 0.3622=T -1.4136=T 0.204=T 9.52542=T 0.41147=T 4.3782804222=T 8.6684439942=T 0.291575263=T pbc="F F F"
C       -0.43628390       1.38163833      -0.16129416
O       -1.54269176       0.52576632      -0.52388455
C       -1.18908759      -0.87452369      -0.57117485
C       -0.25833725      -1.24854545       0.55481626
N        0.97115132      -0.85509092       0.61187827
N        1.46616579      -0.15274475      -0.46464374
C        0.84884035       0.92936284      -0.80776353
H       -0.30797857       1.39006061       0.93761863
H       -0.72270258       2.38912772      -0.48867830
H       -0.70570642      -1.11110536      -1.53770208
H       -2.13861411      -1.42133438      -0.51037305
H       -0.61381076      -1.84255296       1.40235180
H        1.28798548       1.49186168      -1.63730070
