13
Properties=species:S:1:pos:R:3 -1350.2878237694297=T 10.493338=T 10.51687=T -7.6132=T -5.7264=T -8.539=T 1.5162=T -0.1438=T 0.637=T 7.97937=T -0.02833=T 4.8056601642=T 12.0359781458=T 0.222027278=T pbc="F F F"
O        1.04260160       0.25885260       0.49026963
N        2.35556243       0.00176142      -0.05459747
C        2.97799724       1.12775781      -0.16517720
C        4.38977699       1.29590384      -0.70481963
C        4.57930003       2.79787061      -0.65963220
C        3.46519259       3.36169877      -0.15633907
N        2.50835677       2.38930972       0.16803931
H        0.67224254      -0.63888914       0.52313420
H        4.47758760       0.87949023      -1.72086192
H        5.11753842       0.75622237      -0.07715887
H        5.47714572       3.32152428      -0.97081638
H        3.24659789       4.41131540       0.02551568
H        1.55756017       2.54811210       0.47906392
