12
Properties=species:S:1:pos:R:3 -1151.5744204179891=T 9.819433=T 10.69876=T -10.421=T -8.451=T -10.325=T 0.3572=T -1.3835=T -0.17=T 9.70124=T 0.76213=T 5.2458228628=T 6.6899002034=T 0.157280825=T pbc="F F F"
C        0.96169619      -0.13990778       0.22541785
S        2.71373175      -0.01083334      -0.16895426
O        3.46443776      -0.66769608       0.91383293
O        2.88497437      -0.40426835      -1.57654352
C        3.02010367       1.74788327      -0.02312902
C        3.36098740       2.45922460      -1.09658178
H        0.38707563       0.38789828      -0.54298707
H        0.78994223       0.27476576       1.22501533
H        0.73608306      -1.21331551       0.21488498
H        2.97321454       2.12998443       0.99806436
H        3.40971347       1.98243595      -2.07755926
H        3.61224993       3.51773878      -1.01700055
