17
Properties=species:S:1:pos:R:3 -1635.5296102675518=T 10.442884=T 11.52968=T -9.388=T -7.1944=T -10.968=T 0.9532=T 0.0295=T 3.06=T 10.29827=T -2.76638=T 8.8685573982=T 11.564732157=T 0.137327024=T pbc="F F F"
C        2.94321147       0.56586096      -1.95327644
C        2.73236770      -0.16587865      -0.62468833
C        3.37108219       0.52647811       0.58843341
C        4.88291975       0.57736701       0.54579760
C        5.63832693       1.74423150       0.01067635
N        5.53414568       1.53180657       1.47224573
H        2.43291293       0.04683486      -2.77732479
H        4.00931972       0.63616770      -2.21261513
H        2.54428571       1.59122302      -1.90739543
H        3.12644215      -1.19428811      -0.70454196
H        1.65183210      -0.27275594      -0.43548607
H        3.06971411      -0.00195328       1.50877394
H        2.98971896       1.55678826       0.68573352
H        5.36981970      -0.39822517       0.42076166
H        5.08795961       2.61392554      -0.35831124
H        6.59497924       1.56094324      -0.48589842
H        6.41034205       1.13209437       1.82190560
