11
Properties=species:S:1:pos:R:3 -1208.6894727117344=T 8.866557=T 8.88466=T -7.8283=T -5.808=T -8.082=T 0.8236=T -0.0661=T 0.866=T 7.59783=T -0.35339=T 4.7565493096=T 6.1440146426=T 0.383997095=T pbc="F F F"
O        0.90455071      -0.02565089      -0.00633901
C        2.28035949       0.01661180      -0.00019271
C        3.11585138       1.12441115       0.00425441
N        4.41583475       0.64045775       0.00975386
C        4.40715932      -0.73220456       0.00882252
C        3.08719504      -1.15383756       0.00264379
H        0.56726342       0.88640440      -0.00722416
H        2.90158152       2.18758364       0.00400272
H        5.24635897       1.21887549       0.01383421
H        5.33025332      -1.30146881       0.01256998
H        2.73280208      -2.17933242       0.00039439
