18
Properties=species:S:1:pos:R:3 -1739.4336545837675=T 11.233633=T 12.68482=T -9.2315=T -6.8827=T -10.567=T 1.0031=T 0.0693=T 2.788=T 9.93096=T -2.49997=T 8.7842965126=T 11.295806523=T 0.372106204=T pbc="F F F"
N        0.72650762       0.12465983       0.35329145
C        2.16690874      -0.16654796       0.24017171
C        2.94260859       1.12275214      -0.03605801
C        4.46777080       0.94844588      -0.06381524
C        4.98028494       0.12663035      -1.22141018
C        6.24035660      -0.63218820      -1.15320096
O        4.97369618      -1.31561745      -1.08252590
H        0.22064131      -0.73194285       0.59072410
H        0.36459314       0.41650066      -0.55944615
H        2.41598822      -0.92344094      -0.52759460
H        2.49974380      -0.58205199       1.20601833
H        2.66925338       1.86015903       0.73523703
H        2.60946519       1.54919649      -1.00054671
H        4.81632507       0.48977440       0.87667974
H        4.94051090       1.94387738      -0.12643145
H        4.65577020       0.46378102      -2.21643498
H        6.81675862      -0.62394903      -0.22099684
H        6.81867670      -0.81287876      -2.06586133
