14
Properties=species:S:1:pos:R:3 -1378.8309826629088=T 8.749139=T 9.96202=T -10.0053=T -7.7699=T -11.818=T 0.9418=T 0.0588=T 2.561=T 11.11991=T -2.31925=T 9.1969219206=T 11.0958914966=T 0.23852448=T pbc="F F F"
C        1.01639437      -0.07472938      -0.03178788
C        2.51130333       0.09266365      -0.08135958
O        3.17627236      -0.32914383      -1.29565791
C        3.17155114       1.08294203      -0.95168859
C        4.52645869       1.65998582      -0.63415264
O        5.32574663       1.82028721      -1.80951984
H        0.59340805       0.51179752       0.79730866
H        0.75298945      -1.12951938       0.13217997
H        0.55316720       0.25571799      -0.97072914
H        3.05042496      -0.20373941       0.82879171
H        2.54154102       1.69148674      -1.61343667
H        5.03329716       1.01939062       0.11112463
H        4.41576188       2.66750496      -0.20416149
H        5.40022377       0.93819546      -2.21779123
