16
Properties=species:S:1:pos:R:3 -1595.015513341749=T 10.070732=T 10.94866=T -9.286=T -7.1856=T -10.909=T 0.4567=T -0.5823=T 0.437=T 9.91928=T 0.19231=T 4.3146012126=T 11.7127590424=T 0.160206977=T pbc="F F F"
N        2.77244388      -1.06349966       1.09316409
C        2.39765925      -0.20058398      -0.05077231
C        2.93564460       1.22307342       0.11502368
C        4.46926168       1.37596853       0.03213816
C        5.30054728       1.15799180       1.30483599
O        5.03380552       0.06002805       2.03880884
O        6.18910484       1.92956309       1.62138228
H        2.68519755      -2.05269272       0.85066283
H        2.14011975      -0.89988439       1.88172781
H        1.30459329      -0.16802178      -0.20390901
H        2.83603648      -0.64712008      -0.95700400
H        2.55958314       1.65747629       1.05717384
H        2.49215948       1.82997530      -0.69001799
H        4.72115689       2.39045087      -0.30092826
H        4.86515049       0.68891149      -0.73679573
H        4.24373588      -0.45304621       1.65257978
