15
Properties=species:S:1:pos:R:3 -1612.8685713783802=T 11.906486=T 11.96272=T -7.736=T -5.76=T -8.11=T 0.7987=T -0.6618=T 0.319=T 7.60082=T 0.22206=T 4.7281689142=T 0.508122068=T pbc="F F F"
C        0.99291264      -0.00116064       0.16454291
C        2.47300496       0.02579750      -0.02943994
C        3.29423130      -1.02014132      -0.28837940
O        4.61989059      -0.71626337      -0.42073320
C        4.72090199       0.72936230      -0.22676432
C        3.30932528       1.22039171       0.03073171
C        2.93178968       2.49478928       0.26352431
H        0.59510607      -1.02049688       0.07418813
H        0.48270838       0.63059235      -0.58017683
H        0.71574649       0.38547099       1.15838298
H        3.05757552      -2.07652189      -0.40842003
H        5.16772587       1.15369033      -1.13803003
H        5.40073362       0.90154120       0.62076906
H        3.65185129       3.31319386       0.28565525
H        1.88589628       2.74722459       0.43835941
