16
Properties=species:S:1:pos:R:3 -1641.4501375846032=T 10.729738=T 11.74976=T -9.2964=T -7.321=T -10.667=T 0.7002=T -0.2691=T 0.586=T 9.58243=T 0.09253=T 4.3560497324=T 12.8474045228=T 0.206174677=T pbc="F F F"
N        1.34110227      -0.39604495      -0.52646211
C        1.75001573       0.43404279       0.48794832
O        1.31462563       0.32642513       1.63400559
C        2.78569093       1.47862677       0.10719182
C        2.47384509       2.95254231       0.50927249
C        3.95521229       3.11725471       0.93604930
C        4.05209033       1.57155860       1.01090348
H        1.62699545      -0.24770352      -1.48692437
H        0.60310401      -1.06566619      -0.33060039
H        3.06578165       1.41109631      -0.95615144
H        1.80178255       2.95862034       1.37865610
H        2.07550808       3.61449812      -0.27148508
H        4.57053357       3.52455112       0.12037515
H        4.16168928       3.68635577       1.85232493
H        4.96694814       1.08403157       0.64789621
H        3.80886502       1.20091112       2.01644001
