21
Properties=species:S:1:pos:R:3 -2016.872664349576=T 12.258582=T 13.63951=T -10.0601=T -7.7477=T -11.939=T 0.8181=T -0.1277=T 2.672=T 11.51626=T -2.35388=T 9.810950187=T 10.6609610072=T 0.148352069=T pbc="F F F"
C        0.91449575      -0.07721189      -0.01167997
C        2.45381456      -0.13330087      -0.00703416
C        2.91847710      -0.88452340       1.25404849
C        2.94705160      -0.89726082      -1.25010863
C        3.06261364       1.29249566       0.03992795
C        2.73764196       2.22626980      -1.12619502
O        3.40285509       3.49315945      -1.00884530
H        0.52064939       0.39515267      -0.92328995
H        0.53535647       0.48722408       0.85465764
H        0.49250165      -1.09260919       0.04136168
H        2.58026285      -0.37260295       2.16828963
H        4.01644047      -0.95383342       1.29260069
H        2.51432793      -1.90842312       1.27193802
H        2.59846561      -0.43431153      -2.18473738
H        2.57439546      -1.93296843      -1.23799169
H        4.04684145      -0.93709716      -1.28063824
H        4.16079627       1.21050791       0.10876498
H        2.72673169       1.77719622       0.97631881
H        1.64632546       2.37270567      -1.22280971
H        3.09930555       1.80781427      -2.07661533
H        3.10803004       3.90330705      -0.17672252
