17
Properties=species:S:1:pos:R:3 -1704.797832829659=T 11.780041=T 12.99999=T -9.5899=T -7.4436=T -9.693=T 0.8737=T -0.0339=T 2.323=T 9.53305=T -1.89343=T 4.3657826334=T 10.9977069832=T 0.539651669=T pbc="F F F"
C        1.07802718      -0.30555325       0.01635400
O        2.47886026      -0.05211753       0.01722724
C        2.87569427       1.34706191      -0.00022856
C        2.39039447       2.05651349      -1.28055836
C        2.38984620       2.08767861       1.26215461
C        4.34655803       1.31054290       0.00045497
C        5.55920425       1.32991099       0.00034625
H        0.97806459      -1.39836548       0.03323747
H        0.57545977       0.07486370      -0.89013192
H        0.56903319       0.10314147       0.90680642
H        2.70822210       1.49180101      -2.16644289
H        2.82082883       3.06486883      -1.33497515
H        1.29607091       2.15381729      -1.28499435
H        2.70809938       1.54518948       2.16164872
H        1.29543660       2.18411577       1.26417289
H        2.81939572       3.09745637       1.29166893
H        6.63011424       1.33192442       0.00044975
