17
Properties=species:S:1:pos:R:3 -1673.9204770552938=T 10.983187=T 11.79806=T -8.0808=T -6.0089=T -9.381=T 0.9053=T -0.0535=T 3.319=T 8.9048=T -3.30636=T 7.5852898996=T 11.4720278248=T 0.162071711=T pbc="F F F"
C       -1.69472956       0.82271905       0.52359499
C       -1.14450606      -0.24248589      -0.38708696
N       -0.39697833      -1.35581159       0.15408147
C        0.99727122      -1.33274594      -0.31181663
C        1.71258841       0.05206858      -0.13323324
N        0.83331459       1.13054764       0.34740434
C       -0.46244578       1.12301861      -0.29147055
H       -2.62838913       1.30608298       0.23225277
H       -1.57745517       0.69217861       1.60309146
H       -1.71818019      -0.47303055      -1.29156967
H       -0.43785842      -1.35790874       1.17351081
H        1.54831302      -2.12393374       0.21786166
H        0.99202523      -1.61508967      -1.37745019
H        2.54706040      -0.03326783       0.57851212
H        2.15359322       0.36773470      -1.09391340
H        0.73483993       1.08897575       1.36071665
H       -0.57248338       1.81945803      -1.13020565
