13
Properties=species:S:1:pos:R:3 -1328.352098624323=T 9.748469=T 10.20097=T -8.5681=T -6.6055=T -10.187=T 1.1541=T -0.2536=T 0.74=T 9.51925=T -0.14502=T 4.8232909734=T 8.3941125706=T 0.209610184=T pbc="F F F"
N        1.19486410      -0.04377972       0.46282321
C        2.35859537      -0.03432333      -0.07977716
N        2.88592228      -1.19987547      -0.67287551
O        4.34000675      -1.15341913      -0.60659838
C        4.64235216       0.23154608      -0.59884122
C        4.02623278       1.11145151      -1.63811551
C        3.39503404       1.02078987      -0.24480063
H        0.90964427       0.91020964       0.71002585
H        2.60169995      -2.06997703      -0.21715558
H        5.63379149       0.41650900      -0.18684868
H        4.55494355       2.03715661      -1.86418437
H        3.48976984       0.65178269      -2.46809213
H        3.38108344       1.87927927       0.42455010
