13
Properties=species:S:1:pos:R:3 -1312.294645583834=T 9.023816=T 9.62969=T -9.0283=T -6.9262=T -10.556=T 0.9836=T -0.9168=T 0.279=T 9.75281=T 0.46373=T 3.764338946=T 11.740420319=T 0.110098635=T pbc="F F F"
C        1.00999181      -0.00332737       0.07994391
N        2.46187845       0.02883602       0.05647825
C        3.12432571       1.07262643       0.88537010
C        4.07650505      -0.01601873       1.39731370
O        5.10676022      -0.03115587       2.02430632
C        3.17000485      -1.07622936       0.75848723
H        0.64916615      -0.86632685      -0.49734861
H        0.61159361       0.90530992      -0.39321638
H        0.59246554      -0.07273189       1.10969039
H        2.49875586       1.46218017       1.71558465
H        3.56005649       1.91835473       0.33177865
H        3.63984487      -1.83169019       0.11031408
H        2.56356140      -1.58697703       1.53546772
