14
Properties=species:S:1:pos:R:3 -1504.611786413062=T 10.913434=T 11.58532=T -7.6534=T -5.6704=T -7.879=T 0.8721=T -0.0532=T 0.664=T 7.34545=T -0.11262=T 4.341431783=T 6.2044578176=T 0.417455067=T pbc="F F F"
C        0.97671637      -0.04372411       0.01511202
C        2.45546164       0.10144900      -0.00914340
C        3.29082989       1.18546770      -0.06518061
C        4.63757889       0.67965857      -0.06055005
N        5.80085015       1.46108516      -0.19321329
C        4.52598865      -0.68585984      -0.00169185
O        3.19103310      -1.05387951       0.02338304
H        0.50539209       0.94601774      -0.01458146
H        0.63759376      -0.56038445       0.92610256
H        0.61625642      -0.62321002      -0.84861760
H        2.98595721       2.22714997      -0.11672256
H        5.74768761       2.32974929       0.33779591
H        6.64562614       0.95803535       0.07458941
H        5.24358809      -1.49773483       0.01397788
