14
Properties=species:S:1:pos:R:3 -1498.3904116812932=T 13.900071=T 12.76472=T -8.1811=T -6.3176=T -8.447=T 0.3481=T -1.2097=T -0.398=T 7.97267=T 0.96373=T 4.2664326516=T 4.4969350242=T 0.884710147=T pbc="F F F"
C        1.34002724      -0.64271859      -0.18369037
C        2.63440393      -0.28953387      -0.04653341
C        3.13022283       1.06560751      -0.11837749
C        4.43844046       1.38263323       0.02114630
N        4.95471324       2.67085073      -0.04306476
C        6.28705962       2.99901804       0.09869215
O        6.72126869       4.13931465       0.03954088
H        1.02694250      -1.68417822      -0.11998199
H        0.56219633       0.10286536      -0.36335226
H        3.38046255      -1.07229508       0.13241341
H        2.39937002       1.86226936      -0.29584840
H        5.19138981       0.61067486       0.19877371
H        4.32238395       3.45613610      -0.20629239
H        6.92306883       2.10171592       0.27365461
