22
Properties=species:S:1:pos:R:3 -2071.1231056250376=T 12.902103=T 13.98827=T -7.9584=T -6.022=T -9.418=T 0.9013=T -0.0103=T 2.992=T 8.58828=T -2.63689=T 7.2268091778=T 12.0256253148=T 0.164364653=T pbc="F F F"
C        0.99109812      -0.06596169      -0.04928491
N        2.44651808       0.05992303      -0.08634310
C        2.97406287      -0.77582109      -1.16262893
C        2.95541091       1.46912346      -0.07662933
C        2.52647327       2.28633609      -1.31635963
C        2.44181919       2.16848086       1.19650771
C        4.49359671       1.43737189       0.00307420
H        0.57081837       0.46179502       0.81529906
H        0.73639999      -1.13027155       0.06335289
H        0.47792643       0.29967628      -0.96610723
H        2.61833196      -1.80547308      -1.00917765
H        4.07017713      -0.80411614      -1.13987434
H        2.65230647      -0.46565561      -2.18154596
H        2.89821726       1.83477403      -2.24785102
H        2.93235826       3.30716726      -1.26004844
H        1.43218102       2.37030266      -1.38794988
H        2.66080830       1.55512449       2.08267557
H        1.36105204       2.36176481       1.16318319
H        2.94104375       3.14068395       1.31321414
H        4.81986845       0.77933283       0.82170129
H        4.87549589       2.44953042       0.19695007
H        4.95555554       1.09020210      -0.93107770
