17
Properties=species:S:1:pos:R:3 -1645.295388084594=T 10.615086=T 11.56401=T -8.8587=T -6.6917=T -10.195=T 0.9424=T 0.0177=T 2.997=T 9.62406=T -2.73342=T 8.288650079=T 10.4607360158=T 0.09392743=T pbc="F F F"
C        0.93435153       0.00688429      -0.00539363
C        2.45201666       0.04634023       0.05056309
C        3.17310882       1.07327304       0.96697321
C        4.25048252      -0.00387679       1.26347938
C        3.23195619      -1.07911775       0.81377810
N        3.75537499      -2.27489232       0.17274671
H        0.57640723      -0.85966662      -0.58398645
H        0.51976458       0.91092827      -0.47752249
H        0.50700688      -0.06564184       1.00740271
H        2.87178051       0.11992483      -0.96942446
H        2.57014104       1.29685041       1.86083222
H        3.50133674       2.02031405       0.51816778
H        5.08434545       0.05897420       0.54635769
H        4.66357768      -0.07713519       2.27843452
H        2.62964466      -1.39963792       1.68210350
H        4.21914911      -2.02899446      -0.70635936
H        3.00002541      -2.92331642      -0.06202252
