16
Properties=species:S:1:pos:R:3 -1548.3544760532757=T 10.203217=T 11.48347=T -9.206=T -6.9122=T -10.599=T 0.8588=T -0.1196=T 3.003=T 9.99907=T -2.70962=T 8.5595470904=T 10.7388862082=T 0.177057066=T pbc="F F F"
N        3.01347063      -1.14177469      -0.46485390
C        2.43950890       0.06503314       0.15318016
C        3.37530157       1.24501914      -0.01170638
C        3.23732551       2.22262875      -1.15820933
O        2.20726493       1.98446280      -2.09015646
C        2.88855130       2.66053421       0.23788953
O        3.72750613       3.62233201       0.84140917
H        2.31607000      -1.88896652      -0.47600660
H        3.79269297      -1.48684424       0.10207598
H        2.20038944      -0.05141356       1.23124154
H        1.49631378       0.28764135      -0.36673446
H        4.41314342       1.06289902       0.28509399
H        4.17190013       2.61951233      -1.57042542
H        1.89257292       2.85052895      -2.40357027
H        1.81559158       2.77376087       0.44121374
H        3.81784680       3.39059643       1.78319869
