12
Properties=species:S:1:pos:R:3 -1169.3745639426397=T 7.351207=T 7.96732=T -10.257=T -7.8692=T -11.468=T 1.0987=T 0.1994=T 3.413=T 11.14079=T -3.11772=T 9.4912398874=T 11.459220071=T 0.372736657=T pbc="F F F"
C        1.00830484       0.00711468      -0.07133905
C        2.51625940      -0.06194947       0.00735422
C        3.30600801      -0.73146853      -1.09255786
C        3.36606231       0.77151100      -0.92269603
H        0.61362586       0.85320471       0.51210278
H        0.54309530      -0.91373668       0.31306051
H        0.67601273       0.13757955      -1.11260087
H        2.91607814      -0.19203053       1.01705448
H        2.74768497      -1.12222934      -1.94536411
H        4.18589975      -1.31651467      -0.82273057
H        4.28700730       1.21036876      -0.53724307
H        2.84795139       1.38516054      -1.66209043
