17
Properties=species:S:1:pos:R:3 -1638.6899199342033=T 10.450449=T 11.48173=T -9.1879=T -7.0479=T -10.729=T 0.9118=T -0.0152=T 2.904=T 10.12084=T -2.57246=T 8.5079565158=T 11.35897739=T 0.148291347=T pbc="F F F"
C        2.70010270      -1.42708093      -0.70112373
C        2.02783569      -0.11971267      -0.27262879
C        3.00399006       0.97555701       0.13273896
C        3.79853230       0.72725312       1.39896420
C        3.61221113       1.82427970      -0.93111009
N        2.49128152       2.34841766      -0.10844274
H        1.95195822      -2.16162934      -1.03106600
H        3.26971602      -1.88699475       0.11989798
H        3.39613984      -1.25949575      -1.53725820
H        1.33977014      -0.30785580       0.57008134
H        1.40810347       0.27403850      -1.09251338
H        4.50006530       1.55119173       1.59577304
H        4.38786212      -0.19957035       1.33221913
H        3.12645958       0.63356372       2.26687003
H        3.35992836       1.64736010      -1.98021542
H        4.61797713       2.21888632      -0.76206650
H        2.87250641       2.97846174       0.60649018
