13
Properties=species:S:1:pos:R:3 -1354.4865637722016=T 10.457086=T 10.59767=T -8.068=T -6.039=T -8.929=T 1.5594=T -0.115=T 0.761=T 8.59382=T -0.19663=T 5.3014925768=T 12.091362692=T 0.200848933=T pbc="F F F"
N        1.06789378       0.11611145       0.42774427
N        2.36645291       0.02888006      -0.05899237
C        3.01285491       1.11220704      -0.23183395
C        4.45291217       1.27497844      -0.66463900
C        4.58619637       2.77609031      -0.69827351
C        3.41757930       3.31551562      -0.33494861
O        2.42896408       2.38593931      -0.03452503
H        0.54929466      -0.70144502       0.11138563
H        0.58514383       0.98184102       0.16388954
H        4.63648518       0.80302060      -1.64386987
H        5.14211761       0.79871295       0.05227427
H        5.48212575       3.32688153      -0.96752626
H        3.10656945       4.35181668      -0.23004510
