14
Properties=species:S:1:pos:R:3 -1479.2454083748996=T 12.883924=T 13.7149=T -8.8597=T -7.0852=T -9.123=T 0.5709=T -0.909=T -0.149=T 8.38367=T 0.77134=T 4.6948786732=T 10.0146219892=T 0.368213242=T pbc="F F F"
C        0.86609732       0.07836519      -0.00971369
C        2.36215382       0.03180695      -0.00004882
C        3.26613444       1.07345409       0.00807179
C        4.61750645       0.61471546       0.01473728
C        5.82831546       1.50614777       0.02561461
N        4.78603655      -0.70661715       0.01185298
S        3.27679969      -1.44323996       0.00146778
H        0.51878204       1.11950186      -0.00193822
H        0.44043114      -0.42724684       0.86913828
H        0.45274388      -0.40981068      -0.90422506
H        2.97645805       2.12428174       0.00910930
H        5.53954251       2.56430975       0.01003815
H        6.46480278       1.30441417      -0.84710319
H        6.43506589       1.32331767       0.92352881
