15
Properties=species:S:1:pos:R:3 -1424.9111355010505=T 10.403388=T 10.98964=T -9.0884=T -7.0284=T -10.377=T 1.3358=T -0.2501=T 0.586=T 9.87927=T 0.03153=T 5.4592647618=T 6.4528761672=T 0.253467005=T pbc="F F F"
C        2.13595612      -0.88409062       1.53801277
C        2.87324229      -0.58529692       0.22376482
C        2.62585199       0.80627830      -0.26744490
N        3.60450459       1.62784967      -0.38594612
O        3.16076609       2.88918231      -0.84629867
C        4.29587941       3.75334761      -0.96126839
H        2.30153570      -1.92539611       1.84738196
H        1.05122904      -0.73342812       1.43364236
H        2.49103916      -0.22666524       2.34401190
H        2.53638434      -1.29672859      -0.55035856
H        3.95698851      -0.72548394       0.34529909
H        1.59891518       1.11974015      -0.50893384
H        3.89301716       4.71945613      -1.29010507
H        5.01029235       3.37266421      -1.70764017
H        4.80309807       3.87002116       0.00857282
