15
Properties=species:S:1:pos:R:3 -1512.6461844771889=T 10.395731=T 10.90107=T -8.7093=T -6.5234=T -9.106=T 1.2078=T -0.0883=T 1.45=T 8.51598=T -0.80763=T 6.3348414952=T 0.394028275=T pbc="F F F"
C        1.03306994      -0.01806589       0.30489414
C        2.33277646       0.02490142      -0.00616776
C        3.20674779       1.26327691      -0.09652755
C        4.45486852       0.75691060      -0.83307587
N        4.57161408      -0.61811366      -0.32220519
C        3.20526475      -1.16835200      -0.35997467
H        0.48931782      -0.96343906       0.35880171
H        0.46786340       0.89093770       0.51848703
H        3.48367967       1.59381768       0.91787104
H        2.70872098       2.10061990      -0.60410637
H        4.28313217       0.80542448      -1.93043627
H        5.36103180       1.33494527      -0.60142808
H        5.22005295      -1.17765738      -0.87816729
H        2.91106084      -1.54082926      -1.36584369
H        3.09422882      -2.00109671       0.35127882
