13
Properties=species:S:1:pos:R:3 -1443.18799874521=T 10.875582=T 11.66333=T -8.5494=T -6.416=T -9.1=T 1.0879=T -0.0538=T 1.136=T 8.65473=T -0.5578=T 4.3874801834=T 10.8018586976=T 0.528137588=T pbc="F F F"
C        0.90809492      -0.07092413       0.33990673
C        2.09460981      -0.00133891       0.09743698
C        3.52237381       0.03530316      -0.16949864
C        4.10417739      -1.25456333      -0.81982987
C        5.01265829      -0.67028852      -1.87503460
C        4.76824969       0.64213624      -1.97306297
O        3.83741434       1.14427936      -1.09608327
H       -0.14185780      -0.11958046       0.54548925
H        4.06572763       0.26548824       0.76393812
H        3.30665095      -1.87703087      -1.25880867
H        4.62618461      -1.86457898      -0.06871017
H        5.69200594      -1.23840182      -2.50356147
H        5.18187040       1.38345003      -2.65431143
