14
Properties=species:S:1:pos:R:3 -1408.9598251533591=T 10.165586=T 11.3466=T -9.9252=T -7.6603=T -9.907=T 0.9922=T 0.0422=T 2.283=T 9.52946=T -1.91922=T 4.3740277024=T 10.5751750938=T 0.688219407=T pbc="F F F"
C        1.47153864      -0.38183382      -0.22389883
O        2.85788447      -0.07210188      -0.19072679
C        3.08328368       1.31976384      -0.00782416
C        4.59856061       1.54583211       0.01653868
C        4.94365742       2.94945222       0.19363750
C        5.20556679       4.12494971       0.34569478
H        1.38703294      -1.46589975      -0.37005302
H        0.95989582       0.13626092      -1.05671422
H        0.97119389      -0.10449956       0.72296985
H        2.63186374       1.66793520       0.94175500
H        2.62555323       1.90178012      -0.83148858
H        5.02914331       1.16645376      -0.92424653
H        5.03489080       0.94416151       0.83016454
H        5.44422465       5.16023562       0.47891179
