14
Properties=species:S:1:pos:R:3 -1542.9680356188417=T 13.558906=T 13.05273=T -9.0089=T -7.1303=T -8.719=T -0.552=T -2.1196=T -0.731=T 8.22446=T 1.2602=T 4.4916656192=T 0.809184558=T pbc="F F F"
C        0.91182603       0.40205674      -0.29665178
C        2.35515366       0.06636249      -0.01956216
C        2.85554806      -1.15602551       0.32072174
C        2.10315522      -2.37787398       0.48708686
C        2.67997422      -3.55176073       0.81751699
C        3.27045548       1.15823623      -0.13394927
N        3.98662179       2.07940499      -0.23527425
H        0.56184119       1.18702386       0.38974294
H        0.25892246      -0.47007898      -0.18737727
H        0.79931091       0.79516659      -1.31791001
H        3.93433690      -1.22937458       0.48585037
H        1.02081542      -2.34669548       0.33836389
H        3.75791433      -3.63007299       0.97524729
H        2.09121434      -4.46095863       0.93718466
