13
Properties=species:S:1:pos:R:3 -1429.8931358810594=T 10.289293=T 10.46146=T -8.9008=T -6.9408=T -9.528=T 0.2973=T -1.4479=T -0.992=T 9.09214=T 1.6167=T 3.4254356136=T 4.606513851=T 0.41128538=T pbc="F F F"
O        1.03557384      -0.16149161       0.43642442
C        2.22404425      -0.01637602       0.14730520
C        2.87653618       1.26261378      -0.00996577
C        4.18366645       1.44390168      -0.32279073
O        4.59172845       2.72329842      -0.41965622
C        3.40738091       3.57501854      -0.15568631
C        2.23237169       2.62316460       0.15248716
H        2.88789864      -0.90397950      -0.01560453
H        4.95768583       0.69888582      -0.50645959
H        3.25799335       4.18167090      -1.05840789
H        3.67957377       4.23125732       0.68075361
H        1.39081786       2.75371613      -0.54281697
H        1.83625880       2.75654993       1.16972761
