22
Properties=species:S:1:pos:R:3 -2085.6758782452835=T 12.846415=T 13.99838=T -9.0098=T -6.9078=T -10.435=T 0.8462=T -0.0939=T 2.826=T 9.74442=T -2.47892=T 8.2554962226=T 10.6984047792=T 0.091459653=T pbc="F F F"
C        0.96658992      -0.09608819       0.05917348
C        2.49358162       0.01977804      -0.04818720
C        2.99897112      -0.77946698      -1.25789156
C        3.02403624       1.49208708      -0.02625349
C        2.65679419       2.26298183      -1.30344467
C        2.46935418       2.24603477       1.20044238
N        4.50598975       1.40833569       0.01920925
H        0.57018260       0.34020481       0.98586646
H        0.67004835      -1.15520200       0.04244477
H        0.46472102       0.39209935      -0.79089735
H        2.92000679      -0.45025809       0.86018321
H        2.48884607      -0.46844330      -2.18290588
H        2.79350714      -1.85111982      -1.11868538
H        4.07875653      -0.64316779      -1.39693215
H        3.10285117       1.79429345      -2.19020008
H        3.03423630       3.29596884      -1.24370008
H        1.56816490       2.32083527      -1.44126825
H        2.67489124       1.68892002       2.12862730
H        1.38425667       2.41631628       1.14040878
H        2.95347316       3.23111467       1.28440802
H        4.78930876       0.98560578       0.90939880
H        4.89291227       2.35693028       0.02765365
