15
Properties=species:S:1:pos:R:3 -1438.381437698181=T 9.896605=T 10.53872=T -9.2133=T -7.1457=T -10.257=T 1.0783=T -0.0875=T 0.695=T 9.64828=T -0.01971=T 5.5841930554=T 6.4453130212=T 0.20601351=T pbc="F F F"
C        1.93574485      -0.33759096       1.37506241
C        2.51280108       0.07001818       0.01089762
C        3.06858769       1.47033484      -0.00234941
C        2.15623250       2.64892744       0.18902929
N        4.34206444       1.56772452      -0.17884755
O        4.76063486       2.93325679      -0.15794100
H        1.52005572      -1.35401904       1.33003855
H        1.12940346       0.33748137       1.69735184
H        2.71759344      -0.32272086       2.14778461
H        1.72195366       0.00074143      -0.75662381
H        3.31561232      -0.62077911      -0.28306042
H        1.10405025       2.34084004       0.21206248
H        2.30404972       3.37875568      -0.61997776
H        2.39241285       3.17597757       1.12594474
H        5.71595315       2.83869210      -0.31646160
