13
Properties=species:S:1:pos:R:3 -1269.906399849172=T 10.545624=T 11.65517=T -10.2691=T -8.1436=T -10.432=T 0.9581=T -0.8268=T -0.384=T 9.96245=T 0.77252=T 5.4106126554=T 6.819973916=T 0.385621186=T pbc="F F F"
O        0.99761830       0.26047807       0.05203309
S        2.58619533      -0.11056885      -0.26089911
O        2.98400829      -1.11925568       0.71267615
O        2.70457533      -0.32115014      -1.70546323
C        3.36001424       1.47037281       0.20538409
C        4.84989148       1.34452587       0.19800245
C        5.63844343       1.99240451      -0.66565426
H        0.55297809       0.25389165      -0.82058580
H        2.95746820       1.68222412       1.20653488
H        2.99200031       2.21176564      -0.51548678
H        5.27920034       0.67725685       0.94962632
H        5.22793475       2.65481241      -1.43117146
H        6.72247191       1.88152275      -0.63277635
