13
Properties=species:S:1:pos:R:3 -1324.7668029988056=T 9.921614=T 10.19004=T -9.5517=T -7.3645=T -9.269=T 1.3669=T -0.3347=T 0.946=T 8.87421=T -0.61513=T 6.2817134942=T 0.755837173=T pbc="F F F"
C        1.61292407      -0.96826073       0.74839276
C        2.38095688      -0.29832822      -0.11797268
C        3.30490208       0.83771287       0.24109324
C        4.74570421       0.51561231      -0.06450777
C        5.51176096       1.17556430      -0.94021796
H        0.96945099      -1.78733902       0.42402192
H        1.59947800      -0.71616598       1.81220874
H        2.37394953      -0.58518045      -1.17562484
H        3.19388930       1.06474856       1.31540486
H        3.01391537       1.74432375      -0.31699793
H        5.16305583      -0.34217947       0.47489577
H        5.12781130       2.03090667      -1.50273990
H        6.54803147       0.88680541      -1.12169620
