17
Properties=species:S:1:pos:R:3 -1686.9550144485095=T 11.766149=T 12.67369=T -8.4522=T -6.5407=T -9.458=T 0.8693=T -0.0541=T 1.108=T 8.6332=T -0.48526=T 4.9238064236=T 5.99720282=T 0.2116832=T pbc="F F F"
C        4.27908636      -1.93063161       1.18973363
C        3.16608327      -1.01448467       0.73396979
N        1.89919992      -1.22344263       0.87142940
N        3.56193790       0.14224239       0.07085706
C        4.84258411       0.76830453       0.24406970
C        6.00700727       0.32556156      -0.61707028
C        5.33448216       1.65138755      -0.87512725
H        4.90241531      -2.24663241       0.34100213
H        3.85889088      -2.82059776       1.67148918
H        4.94360161      -1.42616649       1.90649182
H        1.74004504      -2.13644156       1.30996000
H        2.77292637       0.77134116      -0.08176958
H        5.09357251       1.10225333       1.25916218
H        5.80973150      -0.47444279      -1.33018905
H        7.00090368       0.31961126      -0.16919876
H        5.85861104       2.56741722      -0.60421376
H        4.70056106       1.72363093      -1.75917621
