17
Properties=species:S:1:pos:R:3 -1776.1556077139905=T 13.465138=T 14.03522=T -9.4508=T -7.3799=T -9.248=T 1.1464=T -0.4903=T 0.776=T 8.71913=T -0.35915=T 6.2062556146=T 0.702682263=T pbc="F F F"
C        2.28548975      -1.00353526       1.92969781
C        2.96317994      -0.51852778       0.88348024
C        3.58724097       0.86428077       0.77990307
C        3.54818012       1.63524039       2.07610874
C        2.86791449       2.76928322       2.27191382
C        5.01937438       0.73644231       0.29609164
C        5.47204280       1.18314091      -0.87967856
H        1.86723774      -2.01068346       1.90752621
H        2.11386088      -0.41076667       2.83057806
H        3.10595243      -1.14367294      -0.00464567
H        3.02337072       1.42934045       0.01432794
H        4.14005157       1.21283281       2.89648998
H        2.26641342       3.21886984       1.47775830
H        2.88950568       3.28837733       3.23129339
H        5.70246758       0.22350871       0.98271562
H        4.81615028       1.69846278      -1.58607644
H        6.51391723       1.05242660      -1.17555414
