19
Properties=species:S:1:pos:R:3 -1893.3210244007644=T 11.453789=T 12.72748=T -9.7315=T -7.5439=T -11.73=T 0.8923=T -0.0578=T 2.82=T 11.27115=T -2.52372=T 9.4608633174=T 10.647545722=T 0.128857011=T pbc="F F F"
C        0.98605386       0.00022661      -0.06526446
C        2.50535778       0.02631560       0.06834142
C        3.08666869       1.14325320       0.94868434
C        4.53247866       0.68355639       1.19070440
C        4.39400756      -0.83467892       1.42331761
C        3.10809230      -1.27419121       0.66113740
O        3.30753427      -2.30775242      -0.31380221
H        0.66240835      -0.85893673      -0.67048532
H        0.60367963       0.91430198      -0.54299719
H        0.51027283      -0.08498198       0.92477333
H        2.94649680       0.14061205      -0.94229889
H        2.53656015       1.18885336       1.90557903
H        3.01423698       2.13677950       0.48200805
H        5.13592131       0.88300596       0.28927751
H        5.02181001       1.20343083       2.02633977
H        5.26361236      -1.41404356       1.08167040
H        4.27816263      -1.04617779       2.49733850
H        2.38897800      -1.72325307       1.36477397
H        3.90712784      -1.95336981      -0.99571766
