16
Properties=species:S:1:pos:R:3 -1531.4339086777845=T 9.304405=T 10.26249=T -9.902=T -7.6095=T -11.677=T 0.8539=T -0.1704=T 2.653=T 11.34072=T -2.37785=T 9.270185248=T 10.812633081=T 0.077791875=T pbc="F F F"
C        0.97437092      -0.12630901      -0.10166606
C        2.46552445       0.05038247       0.15102997
O        3.25371323      -0.68190564      -0.81889970
C        2.93624995       1.51581134       0.16671485
C        2.35971940       2.33292637       1.31377864
O        4.36146246       1.55350858       0.28009205
H        0.37513278       0.30722984       0.71073592
H        0.72979338      -1.19464728      -0.17286135
H        0.67101664       0.36467639      -1.04138040
H        2.74581123      -0.40395923       1.11658023
H        2.89800256      -0.46968245      -1.70210780
H        2.62539412       1.97721361      -0.79908717
H        2.56866970       1.84642912       2.27820528
H        1.27502112       2.46862819       1.20760661
H        2.82834568       3.32593491       1.32596543
H        4.67801237       0.79901279      -0.25681648
