15
Properties=species:S:1:pos:R:3 -1471.1295496302312=T 12.220335=T 11.71522=T -7.7608=T -5.9482=T -8.658=T 1.0595=T -0.4857=T 0.362=T 7.95934=T 0.28147=T 4.7710804688=T 4.8838209386=T 0.365342518=T pbc="F F F"
C        3.26416914      -1.43075828      -0.14059307
C        2.63967356      -0.06230114      -0.20475008
N        1.39546341       0.23235671      -0.44221458
N        3.45080469       1.03084077       0.00810014
O        2.79331673       2.25894873      -0.06911114
C        4.80564971       1.07234427       0.28417208
C        5.52129455       2.19429644       0.48012950
H        4.05423400      -1.55060109      -0.89526220
H        2.49340740      -2.18593241      -0.33046019
H        3.70188749      -1.62944910       0.84787359
H        0.81726284      -0.59389453      -0.59616034
H        1.86462584       1.91582504      -0.27177590
H        5.25889188       0.08352681       0.33095450
H        5.06383229       3.17943207       0.43226001
H        6.58447647       2.11356570       0.69152767
