13
Properties=species:S:1:pos:R:3 -1459.7503623871032=T 11.103126=T 11.07275=T -8.9695=T -6.9238=T -8.732=T 0.1469=T -1.4388=T -0.007=T 8.24885=T 0.51414=T 4.980579613=T 0.569870504=T pbc="F F F"
C        0.97041701      -0.00864680      -0.02412568
C        2.30142057       0.18250848       0.01050996
C        3.02401728       1.45937848       0.08317976
C        4.36052563       1.26798205      -0.00998315
C        4.65914705      -0.19434231      -0.09612746
O        4.23626187      -0.93558234       1.08726492
C        3.35228048      -0.88857968      -0.06354126
H        0.54331318      -1.00916158      -0.10479335
H        0.27418313       0.82969106       0.03215955
H        2.52644568       2.41838978       0.23090768
H        5.12381977       2.04423822       0.01627084
H        5.54363767      -0.58998927      -0.60003937
H        3.15670066      -1.84889610      -0.54694244
