15
Properties=species:S:1:pos:R:3 -1494.7574606803714=T 10.347498=T 11.01174=T -8.0508=T -6.0449=T -9.07=T 0.8982=T -0.0482=T 0.838=T 8.5853=T -0.22493=T 5.1952737706=T 9.5496992864=T 0.122152605=T pbc="F F F"
C        1.09071117       0.00603529       0.13019568
C        2.57112858       0.03460054      -0.06855213
N        3.16883966       1.10146453      -0.46954082
N        4.55597529       1.02345930      -0.67897568
C        5.23253656       0.06518735       0.19066778
C        4.56719189      -1.28019554      -0.04645926
O        3.14845154      -1.18966039       0.20771147
H        0.62520291      -0.72961252      -0.54267674
H        0.67758175       0.99847153      -0.07532014
H        0.84379841      -0.28749486       1.16095018
H        4.92459323       1.96928240      -0.58512790
H        6.29757391       0.01399847      -0.07890737
H        5.14915999       0.32790043       1.26429113
H        4.94813543      -2.05262548       0.63590979
H        4.72128968      -1.60461106      -1.08745598
