16
Properties=species:S:1:pos:R:3 -1632.014445550215=T 12.318716=T 14.05478=T -9.0279=T -6.9264=T -9.159=T 0.8954=T 0.0324=T 2.605=T 8.84374=T -2.08993=T 4.1823081506=T 10.1685630068=T 0.710997365=T pbc="F F F"
C        0.98383014      -0.00871931       0.05450700
C        2.43761345       0.00131630      -0.00190917
C        3.65173463       0.01798364      -0.05444519
C        5.11058487       0.01278504      -0.10399879
N        5.67561692       1.37431236      -0.10996525
C        5.86816999       1.96310270       1.22033012
C        7.03610417       1.46281453       0.43661635
H        0.58522594       1.01657557       0.07273053
H        0.62142252      -0.52491454       0.95602353
H        0.55422995      -0.51796468      -0.82103656
H        5.44924916      -0.48730562      -1.02737991
H        5.50017479      -0.58908676       0.74708054
H        5.56056606       1.37029665       2.08811621
H        5.66719685       3.03371181       1.29376484
H        7.70281397       2.16008974      -0.07474316
H        7.50922659       0.53900257       0.78730891
