14
Properties=species:S:1:pos:R:3 -1392.7287848368464=T 10.221951=T 10.99433=T -9.1648=T -7.1351=T -10.321=T 1.412=T -0.3414=T 0.379=T 9.84469=T 0.22852=T 5.4464942038=T 6.3088664282=T 0.200659265=T pbc="F F F"
O        0.94490423       1.33933210      -1.01442569
N        2.35278558       1.28341971      -1.17974698
C        2.93173082       0.98566322      -0.07244746
C        4.40312470       0.93071623       0.02203691
C        5.29273194       1.17136417      -1.18549603
C        5.21896420       2.20627601      -0.09913469
O        6.27864743       2.34476854       0.81822132
H        0.64595886       1.53616053      -1.92037119
H        2.34024629       0.79481505       0.83418424
H        4.79349033       0.24189283       0.77372802
H        4.79840854       1.38084047      -2.13378451
H        6.20120749       0.57089349      -1.23406326
H        4.64780972       3.11878049      -0.30387726
H        7.00964988       2.79672713       0.35967658
