19
Properties=species:S:1:pos:R:3 -1895.1352589090861=T 11.39871=T 12.61639=T -9.7567=T -7.5952=T -11.682=T 0.8583=T -0.1368=T 2.807=T 11.20803=T -2.48124=T 9.3600007064=T 10.628513871=T 0.095795291=T pbc="F F F"
C        0.97111085       0.01628840      -0.04432828
C        2.49132052       0.00434162       0.03664383
O        2.93977198       0.14315637      -1.33644280
C        3.08783963       1.13088499       0.90650045
C        4.52441500       0.66414801       1.17646083
C        4.38024231      -0.85794011       1.42010970
C        3.08013254      -1.28196750       0.67907698
H        0.52857025      -0.05780453       0.95844939
H        0.61311278      -0.82823430      -0.65001289
H        0.62205204       0.94567713      -0.51592775
H        3.91272816       0.12654233      -1.33518477
H        2.53002862       1.19012451       1.85659450
H        3.01444146       2.10647360       0.40561882
H        5.16018494       0.86193564       0.29560590
H        4.99848380       1.18705970       2.01877954
H        5.26337932      -1.41692880       1.07970058
H        4.28206610      -1.05489761       2.49808318
H        3.25156045      -2.03365879      -0.10455511
H        2.35491924      -1.71476067       1.38423789
