17
Properties=species:S:1:pos:R:3 -1637.5297815903393=T 11.33984=T 12.30476=T -8.8549=T -6.8198=T -9.777=T 0.842=T -0.1312=T 1.104=T 9.02259=T -0.50934=T 4.9261001646=T 6.312437225=T 0.202181792=T pbc="F F F"
C        2.25092859       3.51743041      -1.76309499
C        3.14910876       2.54825464      -1.02000409
O        4.47217012       3.09167708      -0.97031871
C        5.37702839       2.25270338      -0.26070016
C        6.73429705       2.92765314      -0.11284153
N        6.67592512       4.30135128      -0.09237044
N        7.84683913       2.30480107       0.07498158
H        1.23162254       3.11201975      -1.82682576
H        2.62051323       3.68573907      -2.78398675
H        2.20574453       4.48495447      -1.24414074
H        3.17233827       1.56487026      -1.52990798
H        2.78072080       2.37917510       0.01142798
H        5.51185087       1.28837556      -0.78559833
H        4.98115671       2.03636966       0.75249432
H        5.88351301       4.72242793      -0.56940210
H        7.57285511       4.77140600      -0.18022443
H        7.69241780       1.28991118       0.06917213
