12
Properties=species:S:1:pos:R:3 -1323.4021792821497=T 9.934327=T 10.05774=T -8.5688=T -6.6147=T -9.268=T 1.3267=T -0.4502=T 0.059=T 8.71318=T 0.59979=T 4.3511274882=T 5.3236116792=T 0.303791339=T pbc="F F F"
C        1.09630611      -0.03644891       0.20051669
C        2.39295763       0.01556841      -0.13368908
N        3.19155893       1.14974467      -0.31817775
C        4.49319343       0.84589636      -0.66104839
O        5.40882016       1.61952471      -0.88312562
C        4.51118933      -0.67967111      -0.69537575
O        3.17507009      -1.09455961      -0.35747360
H        0.60417825      -0.99822515       0.30924770
H        0.53151492       0.87659645       0.36454452
H        2.85318602       2.10152398      -0.21212472
H        4.77625900      -1.04629546      -1.69866020
H        5.22635612      -1.08028435       0.03895621
