15
Properties=species:S:1:pos:R:3 -1501.2826134537568=T 10.540139=T 11.27962=T -9.029=T -7.0735=T -10.154=T 0.6288=T -0.3868=T 0.505=T 9.72068=T 0.1273=T 4.3885588616=T 5.9544648458=T 0.211194286=T pbc="F F F"
N        1.02234668      -0.00730927       0.40158090
C        2.40234691       0.02700215      -0.06884949
C        3.29052563       1.06594404       0.67810361
N        4.13820545      -0.04514565       1.12637000
C        3.29894110      -1.09962217       0.53397984
C        5.17396010      -0.05868941       2.00048438
O        5.67663057       0.94419714       2.50320746
H        0.50685863      -0.75344273      -0.07328942
H        0.54990074       0.86637355       0.15378177
H        2.51937756       0.09785376      -1.16547455
H        2.77482483       1.57447204       1.50783949
H        3.81613332       1.80411682       0.05526811
H        3.82207958      -1.74019287      -0.19196643
H        2.76791712      -1.71447414       1.27761231
H        5.53192179      -1.09722327       2.20246203
