16
Properties=species:S:1:pos:R:3 -1617.1666401763987=T 11.042224=T 11.66708=T -8.9247=T -6.856=T -9.442=T 1.0746=T -0.4164=T 1.205=T 8.8461=T -0.56219=T 6.4272358624=T 0.380359397=T pbc="F F F"
O        0.95489907       0.14491281       0.65929549
C        2.27271126      -0.01368583       0.09609495
C        3.15977499       1.14457300       0.62656376
N        4.39152769       0.55338211       1.19153216
C        3.97138195      -0.78697010       1.65409610
C        2.98660241      -1.25778128       0.60640501
C        2.82591677      -2.49549598       0.12384134
H        0.45130122      -0.66232466       0.45451675
H        2.21214023      -0.01742635      -1.00780507
H        2.59414413       1.64962482       1.42642882
H        3.40710088       1.88971372      -0.13999862
H        5.06278937       0.42044738       0.42902992
H        4.83286429      -1.45396420       1.78827539
H        3.47052293      -0.67714365       2.63292967
H        2.14519341      -2.70325003      -0.70620976
H        3.36365940      -3.34982178       0.54107408
