15
Properties=species:S:1:pos:R:3 -1498.3250348635179=T 10.898007=T 11.42768=T -9.385=T -7.342=T -10.025=T 0.5124=T -1.1355=T -0.322=T 9.60173=T 0.8364=T 4.1073958094=T 5.4601202652=T 0.219675303=T pbc="F F F"
C        0.96269645       0.07107458       0.09732829
C        2.35934450      -0.47384730       0.00953969
C        2.67370878      -1.76255483       0.22722919
C        3.40232767       0.51613678      -0.43232081
O        3.15421275       1.44358510      -1.20956332
N        4.66682408       0.32300491       0.08542185
N        5.66580367       1.30717795      -0.12577329
H        0.88740034       0.83555583       0.88579950
H        0.23871976      -0.72537334       0.30738038
H        0.69738865       0.56947564      -0.84543433
H        1.90750695      -2.48631708       0.51198997
H        3.68864132      -2.13949954       0.09398317
H        4.74309408      -0.15639188       0.97973938
H        5.15391304       2.14619027      -0.43523761
H        6.20703796       1.01386291      -0.94742206
