15
Properties=species:S:1:pos:R:3 -1463.056761727947=T 11.042155=T 11.32355=T -8.2489=T -6.3239=T -9.024=T 0.8506=T -0.271=T 0.689=T 8.38675=T -0.13542=T 4.754429149=T 5.3144367152=T 0.324508285=T pbc="F F F"
O        0.91585654       0.06792559       0.32707631
C        2.27520114      -0.01682168      -0.06759438
C        3.15198620       1.05686697       0.60902560
N        4.13659623      -0.01692578       0.90991196
C        3.16897099      -1.09268130       0.62123705
N        4.92923045      -0.08843060       1.99984271
C        5.29116862       1.00719679       2.57989125
H        0.40442341      -0.57592484      -0.19216169
H        2.37873437      -0.01926167      -1.16472493
H        2.66668503       1.44906328       1.52222636
H        3.52691974       1.88628794      -0.00702411
H        3.56640309      -1.91519877       0.00862556
H        2.68334256      -1.48609802       1.53003408
H        5.97180534       0.91909773       3.42666627
H        4.96795629       2.00743436       2.25845795
