19
Properties=species:S:1:pos:R:3 -1939.9226163088915=T 11.779329=T 12.85885=T -10.0865=T -7.832=T -11.387=T 0.9322=T 0.0187=T 3.001=T 11.1578=T -2.8217=T 9.675557475=T 10.3754708436=T 0.191055758=T pbc="F F F"
C       -0.86874456       0.00112032      -1.15399051
C       -0.63963328       1.06530596      -0.03701458
C       -1.16845950      -0.00146975       0.96150796
C       -0.64000495      -1.06591513      -0.03967815
C        0.86262487      -1.28857561       0.20558686
C        1.66538147      -0.00062911      -0.08747384
C        0.86305527       1.28686234       0.20879275
H       -1.91506601       0.00173431      -1.49084796
H       -0.20777367       0.00209634      -2.03383562
H       -1.18514480       2.01784498      -0.10815740
H       -0.74810225      -0.00282406       1.98020278
H       -2.26697319      -0.00133806       1.01722953
H       -1.18579203      -2.01811616      -0.11319629
H        1.00329204      -1.61348051       1.25066217
H        1.24033669      -2.10601974      -0.42991275
H        1.93304862       0.00066007      -1.15546191
H        2.62036269      -0.00146296       0.45918615
H        1.24104577       2.10574602      -0.42467937
H        1.00384682       1.60912076       1.25467019
