15
Properties=species:S:1:pos:R:3 -1560.3986795317778=T 11.964392=T 12.92784=T -9.8484=T -7.5751=T -9.665=T 1.4481=T -0.2586=T 1.254=T 9.1947=T -0.71413=T 4.3870462324=T 10.7160107912=T 0.715695434=T pbc="F F F"
C        1.02268383      -0.25628700       1.72551329
C        1.70083942      -0.19724848       0.57529092
C        2.58186698       0.94325717       0.17829693
O        3.87096125       0.42261309      -0.18722009
C        4.75738808       1.43810556      -0.65663771
C        4.35196489       2.04983005      -1.92497499
C        4.01456093       2.55889970      -2.97417236
H        0.35799227      -1.09041304       1.95374221
H        1.10397064       0.53416161       2.47602604
H        1.61407154      -1.00329944      -0.16010399
H        2.68344302       1.67039201       1.00807298
H        2.14405661       1.47542810      -0.68918374
H        5.73305979       0.94421183      -0.77952102
H        4.87894037       2.23270971       0.10689484
H        3.72020039       3.00170915      -3.90397331
