13
Properties=species:S:1:pos:R:3 -1379.0359557254342=T 9.41773=T 10.03342=T -9.1009=T -7.058=T -10.606=T 0.7895=T -0.2658=T 0.519=T 9.62006=T 0.14635=T 4.3545990962=T 12.3119709818=T 0.210978107=T pbc="F F F"
O        1.41799702       0.16027303       0.89852683
C        2.42076334      -0.06186607       0.23126371
N        2.76524412      -1.25765428      -0.36074877
C        4.05721252      -1.28509210      -1.03994784
C        4.54651961       0.15135012      -0.90200416
N        3.65096443       1.11334316      -1.57635436
C        3.54225253       0.90161935      -0.10140240
H        2.09465312      -2.01884261      -0.40461399
H        4.75344324      -1.98399473      -0.54624971
H        3.95483644      -1.57151717      -2.09922130
H        5.61586753       0.35135154      -0.83051885
H        4.16418770       1.98918147      -1.72993204
H        3.77804840       1.70571829       0.59417289
