15
Properties=species:S:1:pos:R:3 -1556.1484384562425=T 11.130176=T 11.65917=T -9.0067=T -7.1315=T -9.977=T 0.407=T -1.26=T -0.753=T 9.2854=T 1.3406=T 3.4832254882=T 5.1638557182=T 0.447854583=T pbc="F F F"
C        4.47195819      -0.88079712       0.50053669
O        3.26238674      -0.11669946       0.35792771
C        3.39110073       1.22348329       0.28428912
C        4.52955194       1.95530812       0.32861420
C        4.55743802       3.42286957       0.23638500
C        3.25176579       4.19079922       0.07909667
O        5.63398985       4.02262824       0.28496823
H        4.15824650      -1.92883784       0.53184883
H        4.99098685      -0.61407024       1.43336863
H        5.14035392      -0.71264555      -0.35726244
H        2.40591942       1.68271202       0.17711183
H        5.51042378       1.49160904       0.43683055
H        2.57013743       3.99510875       0.92011388
H        2.73199705       3.90193112      -0.84643326
H        3.48046377       5.26111082       0.04279436
