19
Properties=species:S:1:pos:R:3 -1931.3084067360453=T 14.515121=T 14.80783=T -8.2821=T -6.3386=T -8.178=T 0.7555=T -0.7094=T 0.419=T 7.62281=T 0.15391=T 4.9871260738=T 0.748248599=T pbc="F F F"
C        2.21953927      -0.75057242      -1.48700267
C        2.91370774      -0.38307289      -0.16390483
C        3.39519072       1.03513765      -0.14405451
C        4.65859303       1.50527143       0.01377117
C        5.86686373       0.62836250       0.21762707
C        4.86769960       2.95442485      -0.01103359
C        6.04400681       3.59485991       0.13252636
H        1.83872102      -1.78160565      -1.45805052
H        2.91649219      -0.66586271      -2.33306163
H        1.36861891      -0.08252296      -1.68727779
H        3.73538978      -1.08747672       0.03062470
H        2.18966805      -0.52048055       0.66017532
H        2.60748910       1.78563200      -0.29029323
H        5.61976515      -0.43868723       0.19933004
H        6.34914716       0.84740381       1.18320539
H        6.61891321       0.81558844      -0.56468081
H        3.96262382       3.55391302      -0.16160808
H        6.98403210       3.06224863       0.28613407
H        6.09564861       4.68319888       0.09915356
