14
Properties=species:S:1:pos:R:3 -1433.374463300973=T 9.606891=T 10.65949=T -9.6754=T -7.6606=T -10.96=T 1.031=T -0.0452=T 0.34=T 10.24427=T 0.27414=T 4.7197998592=T 12.909918264=T 0.201123183=T pbc="F F F"
C        1.82610481      -0.66953900      -0.71814175
O        2.99143582      -0.03770177      -1.29095452
C        3.50013720       0.97796369      -0.53494307
O        3.06057367       1.32951254       0.54638742
N        4.53926887       1.60495633      -1.22497797
C        5.77016479       0.91347406      -1.60182147
C        5.76633567       1.97303437      -0.53682548
H        1.54653977      -1.45545752      -1.42748618
H        1.01052331       0.05710105      -0.60624806
H        2.06031016      -1.09948265       0.26465016
H        6.14708364       1.14090653      -2.60105510
H        5.88278638      -0.12478309      -1.28014930
H        5.86758055       1.65240696       0.50235904
H        6.14456538       2.97169850      -0.76336372
