19
Properties=species:S:1:pos:R:3 -1874.154370243287=T 12.21503=T 13.31527=T -9.7561=T -7.5462=T -9.581=T 1.3718=T -0.1959=T 1.21=T 9.01532=T -0.63129=T 6.5935258856=T 0.432885293=T pbc="F F F"
C        2.85348908      -0.98390290      -0.56264414
C        2.61315757      -0.02939563       0.60844355
C        3.32370792       1.32903442       0.45613514
C        2.90305401       2.28868458       1.59081432
O        3.43057831       3.60364505       1.43966532
C        4.82138887       1.19086637       0.46116518
C        5.66116624       1.78476970      -0.39785769
H        2.32804956      -1.93732023      -0.41051822
H        3.92341713      -1.20432796      -0.68930303
H        2.49236323      -0.54926406      -1.50717008
H        2.94429328      -0.50297510       1.54954292
H        1.53104028       0.15206304       0.72051931
H        3.01347113       1.79636654      -0.49575656
H        3.19408252       1.85035358       2.56710810
H        1.80796007       2.39956838       1.58913574
H        4.38734817       3.50420122       1.26863402
H        5.23728075       0.58687765       1.27940097
H        5.28939884       2.38936870      -1.22928865
H        6.74318305       1.67218665      -0.30961618
