15
Properties=species:S:1:pos:R:3 -1443.2775848549456=T 10.887945=T 11.3986=T -8.8283=T -6.6499=T -10.139=T 1.2635=T -0.6269=T 0.28=T 9.55122=T 0.24518=T 5.3418004254=T 6.5287803964=T 0.405733908=T pbc="F F F"
C        1.77465074       1.65719417       1.16143036
N        2.91257627       1.87545370       0.61464172
O        3.67441651       0.69335723       0.53068951
C        4.96714822       0.99858331      -0.00279904
C        6.10306056       1.39923371       0.96405549
N        7.00365805       0.36420817       0.34321657
C        5.80631168      -0.24365448      -0.33817158
H        1.11625257       2.52145521       1.25342978
H        1.45764108       0.67148100       1.52127819
H        4.85417119       1.69870465      -0.84404757
H        5.87310435       1.13571341       2.00846956
H        6.46210007       2.43674662       0.92108231
H        7.59184586       0.81649198      -0.36176930
H        5.93090049      -0.49970500      -1.39943387
H        5.46465237      -1.13566369       0.21019786
