13
Properties=species:S:1:pos:R:3 -1310.1139042994846=T 8.57029=T 9.16698=T -9.3234=T -7.1039=T -10.755=T 0.845=T -0.1117=T 3.049=T 10.23711=T -2.86929=T 8.3465143452=T 11.8727381782=T 0.229105055=T pbc="F F F"
C        0.67753224       1.20861619      -0.29418554
O       -0.61354842       1.12596926      -0.92089188
C       -1.36278455       0.05978204      -0.31399159
C       -0.33924344      -0.89573846       0.25785732
N        0.72049440      -1.24649826      -0.72056746
C        0.95535934      -0.16671254       0.27058139
H        1.39142278       1.52435286      -1.06996591
H        0.68068812       1.95254141       0.52745345
H       -2.01250714       0.43596505       0.50139407
H       -1.99145411      -0.38033853      -1.10281523
H       -0.62012213      -1.59445950       1.04845729
H        1.19556546      -2.09576066      -0.39656832
H        1.68662746      -0.29542887       1.07110241
