12
Properties=species:S:1:pos:R:3 -1278.5692924790908=T 12.791062=T 11.80276=T -8.4156=T -6.6195=T -8.59=T -0.0412=T -1.6953=T -0.272=T 7.94859=T 0.77031=T 4.3791731214=T 0.566206754=T pbc="F F F"
C        0.83180532       1.83801442      -0.02202984
N        2.09932146       2.05736056      -0.02356262
N        2.92333331       0.99065713       0.08983268
C        4.29040154       1.13228673       0.09439354
C        4.96871435       2.30437321      -0.00838528
C        6.38125054       2.33415899       0.00699579
N        7.55282355       2.38609619       0.01655417
H        0.17542176       2.70251233      -0.11337077
H        0.38848767       0.83325310       0.06603287
H        2.52611820       0.04999058       0.17276871
H        4.81960488       0.18407024       0.19186287
H        4.43428744       3.24920653      -0.10548213
