15
Properties=species:S:1:pos:R:3 -1522.346336290671=T 10.303993=T 11.24655=T -9.2366=T -7.2776=T -10.492=T 0.8118=T -0.1435=T 0.686=T 9.7635=T -0.09908=T 4.7574420088=T 6.3997357676=T 0.13280236=T pbc="F F F"
N        2.69531467      -0.13228755       0.97780343
C        2.53095228       0.52059608      -0.23608559
O        1.42985225       0.72862312      -0.74329541
N        3.71349058       0.94856829      -0.83673857
C        4.97366699       1.04784967      -0.15561638
C        5.85117046      -0.18863544      -0.05643475
C        6.22376920       0.93965885      -0.98730947
H        3.59468493      -0.56230729       1.17672279
H        1.87563726      -0.65863912       1.26373013
H        3.53281559       1.61575977      -1.58423011
H        5.01108396       1.73645368       0.69668425
H        5.47113460      -1.10079549      -0.51762119
H        6.43883555      -0.32830122       0.85146420
H        7.06458187       1.57982315      -0.72237395
H        6.09211981       0.76472349      -2.05515938
