14
Properties=species:S:1:pos:R:3 -1492.7039248666586=T 13.721512=T 14.65925=T -9.1436=T -7.0629=T -8.709=T 0.9865=T -0.6716=T 1.001=T 8.33787=T -0.59225=T 3.211981316=T 7.8873321942=T 1.91401497=T pbc="F F F"
N        0.96608371       0.05036150       0.01011625
C        2.43127185      -0.01912454      -0.01744954
C        3.01403930       1.40985747      -0.00860303
C        4.46498167       1.43667187       0.00088969
C        5.68871983       1.42879695       0.00646031
C        7.04844542       1.43531520       0.01102238
C        8.26970945       1.43982587       0.01231299
H        0.57595957      -0.87827517       0.18007491
H        0.60829730       0.34898916      -0.90104136
H        2.85431043      -0.56842869      -0.88019207
H        2.76742967      -0.53943882       0.89152106
H        2.61633704       1.94525672       0.86965202
H        2.64794645       1.95744473      -0.89562886
H        9.33987831       1.44514774       0.01355527
