11
Properties=species:S:1:pos:R:3 -1314.3955369293183=T 9.906046=T 9.59069=T -8.9878=T -7.079=T -9.165=T -0.4087=T -2.0282=T -1.167=T 8.70461=T 1.75905=T 3.9448873592=T 6.908871878=T 0.48357261=T pbc="F F F"
O        0.99884149       0.11349763       0.23198654
C        2.19056773      -0.04324328       0.08945680
O        2.99978554       1.15599236       0.01829786
C        4.33439486       1.09726568      -0.13903184
C        5.02607745      -0.06857918      -0.24308351
C        4.29117638      -1.28985575      -0.18109261
C        2.93442018      -1.27714384      -0.02181694
H        4.78575137       2.09015715      -0.17227677
H        6.10620977      -0.04894167      -0.36915917
H        4.81935600      -2.24198194      -0.26192261
H        2.34476923      -2.19112714       0.02916225
