14
Properties=species:S:1:pos:R:3 -1511.0950843665744=T 10.877437=T 11.44211=T -7.4632=T -5.4992=T -7.796=T 0.7955=T -0.0885=T 0.977=T 7.31213=T -0.36836=T 4.6006493132=T 6.0814389084=T 0.404721838=T pbc="F F F"
C        0.95982912      -0.02107871      -0.00850908
C        2.45079922       0.05514517       0.00011699
C        3.30229971       1.15490912       0.00505694
C        4.63896731       0.66112566       0.01122088
O        5.81310411       1.38269855       0.01769380
C        4.59004300      -0.72099635       0.01000707
N        3.24512055      -1.06716682       0.00320713
H        0.53600855       0.99075337      -0.00053243
H        0.56559696      -0.55085118       0.87382488
H        0.57466432      -0.53313530      -0.90525062
H        2.98800941       2.19587738       0.00424404
H        5.58307553       2.32686360       0.01729823
H        5.38022020      -1.46174517       0.01385806
H        2.89864200      -2.01902931       0.00093411
