16
Properties=species:S:1:pos:R:3 -1583.705983686456=T 10.162884=T 11.2355=T -9.3636=T -7.1208=T -10.77=T 1.1055=T -0.1146=T 0.186=T 10.25118=T 0.45418=T 4.4392319398=T 12.1393576726=T 0.176636268=T pbc="F F F"
C        1.94580052      -0.00831969       0.45683179
O        3.37150141       0.21869787       0.56961590
C        3.83528256       1.28253837      -0.13592744
O        3.12931193       2.01753951      -0.80268780
C        5.35193042       1.39789531      -0.02878636
C        5.98734756       0.45198224      -1.07126868
N        5.71010242       2.81067768      -0.16720611
H        1.74098771      -0.88253566       1.08250325
H        1.67020420      -0.20372329      -0.58761630
H        1.39103600       0.86723993       0.81707819
H        5.64005093       1.04908115       0.97650503
H        5.67585013       0.73300993      -2.08791946
H        5.70674593      -0.59583876      -0.88997710
H        7.08289375       0.52434199      -1.01195864
H        5.14330766       3.21853136      -0.91738686
H        6.69026687       2.89419206      -0.44320943
