21
Properties=species:S:1:pos:R:3 -1944.4164562786877=T 12.543856=T 13.65304=T -8.0318=T -6.0314=T -9.449=T 0.8923=T -0.043=T 3.215=T 8.63886=T -2.89131=T 7.3777993286=T 11.7099321616=T 0.162491958=T pbc="F F F"
C        0.88234584      -0.87898403       0.18408734
C        2.03539176      -0.14973846      -0.52358028
C        2.67655841      -1.03363325      -1.61106525
N        3.34146468      -2.19788999      -1.00273782
N        1.71753212       1.18503887      -1.07592184
C        0.64049136       1.19807327      -2.06157436
C        1.48152501       2.18426511      -0.04124487
H        0.50193333      -0.30970611       1.04392273
H        1.24086701      -1.85265435       0.54335904
H        0.04332663      -1.06388218      -0.50387941
H        2.82714586       0.03781847       0.22645382
H        3.34287671      -0.38837579      -2.21549860
H        1.89435953      -1.42109495      -2.28461975
H        4.21590125      -1.90305184      -0.56015758
H        3.60377359      -2.86798719      -1.72798852
H        0.84556263       0.48094737      -2.86792500
H        0.58711528       2.19887487      -2.51593562
H       -0.36294063       0.96972323      -1.63985986
H        2.32191433       2.19032868       0.66863339
H        0.54242884       2.03018942       0.53553952
H        1.42308642       3.18044886      -0.50590708
