12
Properties=species:S:1:pos:R:3 -1112.4731548956163=T 7.003955=T 7.55628=T -9.7535=T -7.4133=T -11.634=T 1.0587=T 0.0984=T 3.399=T 10.96116=T -3.18422=T 9.422936=T 15.8032059656=T 0.186571824=T pbc="F F F"
C        0.95445569      -0.08809039      -0.00101345
C        2.46994309      -0.02494825      -0.01143103
O        2.87389723       1.34282854       0.02721337
C        4.28625437       1.47562491       0.01957801
H        0.61835308      -1.13391771      -0.03076387
H        0.53839199       0.43546073      -0.87269036
H        0.55290885       0.38011752       0.90815354
H        2.87675773      -0.50990113      -0.92285844
H        2.89133266      -0.56464120       0.86180054
H        4.51231024       2.54905873       0.05046348
H        4.73169203       1.03932350      -0.89546783
H        4.74664302       0.98446472       0.89869604
