10
Properties=species:S:1:pos:R:3 -1155.241180999828=T 9.213607=T 9.02298=T -10.0187=T -8.1066=T -10.437=T -1.285=T -3.0824=T -1.684=T 9.9643=T 2.19268=T 4.000346297=T 4.9871260738=T 0.463801926=T pbc="F F F"
C        0.99852089       0.01350258      -0.09866290
C        2.33686248      -0.04064724       0.01621224
C        3.24509231      -1.15524916       0.15933236
N        4.48728505      -0.78819425       0.24043325
O        4.53697923       0.64243314       0.15818549
C        3.24263388       1.14955621       0.01991794
O        3.01197224       2.33111656      -0.07081696
H        0.50229227       0.98032093      -0.19824100
H        0.38313711      -0.88632136      -0.09541492
H        3.00961453      -2.21808740       0.20375449
