13
Properties=species:S:1:pos:R:3 -1430.5188602835728=T 13.728101=T 13.41332=T -8.3073=T -6.3434=T -8.492=T 0.6857=T -0.8621=T 0.387=T 8.06855=T 0.18664=T 4.0729648972=T 5.6129454088=T 0.542252918=T pbc="F F F"
C        0.95420919      -0.16656434      -0.07642238
C        2.28642045      -0.09672182      -0.09996991
O        2.94078872       1.11527527      -0.03683945
C        4.30476883       1.10090108      -0.04883680
C        5.00535540       2.25360729       0.00574701
C        6.41645365       2.29011038      -0.00170903
C        7.63267384       2.36577723      -0.00471730
H        0.47233929      -1.13948032      -0.12989026
H        0.33630027       0.72744735      -0.00568784
H        2.93910436      -0.97205790      -0.17019955
H        4.78194857       0.11822079      -0.10334232
H        4.46034165       3.20003470       0.05874387
H        8.70132577       2.42683028      -0.00788604
