17
Properties=species:S:1:pos:R:3 -1751.879905389418=T 12.421524=T 13.11551=T -9.322=T -7.3303=T -9.629=T 0.1011=T -1.5489=T -0.687=T 9.47549=T 1.32268=T 3.4683347696=T 4.9969705622=T 0.489374728=T pbc="F F F"
C        2.84482214      -0.97500704       1.36063472
C        3.63434686      -0.44608913       0.15087868
C        3.64643896       1.04695975       0.08959835
C        4.70881647       1.88691315       0.06515380
C        6.16034519       1.50851672       0.08645720
C        4.39585526       3.33034112       0.00851362
O        5.23151870       4.22438547      -0.02306851
H        2.80994924      -2.07311939       1.35113293
H        1.80924558      -0.60419974       1.35366477
H        3.30948711      -0.65517496       2.30386801
H        3.15770668      -0.82332082      -0.77207468
H        4.65638898      -0.85096887       0.16111394
H        2.65391476       1.51847533       0.07191933
H        6.31405862       0.42552162       0.14662821
H        6.66401907       1.98800184       0.93853177
H        6.66400536       1.88729996      -0.81502218
H        3.29908103       3.56585498      -0.00481999
