16
Properties=species:S:1:pos:R:3 -1590.8560167266905=T 11.918864=T 12.44169=T -9.5014=T -7.3363=T -9.47=T 1.1472=T -0.5189=T 0.278=T 8.82793=T 0.3042=T 5.4962001912=T 5.9324945266=T 0.275046791=T pbc="F F F"
C        0.84698997       0.07393535       0.23066147
C        2.29938180      -0.28275618       0.06981665
C        2.74609933      -1.54644465       0.12127146
C        3.25127326       0.88091194      -0.15516250
C        3.02617703       1.55789031      -1.47604425
N        2.65423228       2.78443634      -1.50951527
O        2.49085479       3.23058746      -2.84713166
H        0.70292077       0.73576679       1.10040900
H        0.22486569      -0.81961969       0.36675903
H        0.47544840       0.63043462      -0.64389812
H        2.06378297      -2.38286904       0.28526898
H        3.80588746      -1.78357728       0.00769617
H        4.28903899       0.51188927      -0.11547437
H        3.12874706       1.63347982       0.64057355
H        3.17157861       0.98437273      -2.40317170
H        2.22452160       4.15843221      -2.71552844
