17
Properties=species:S:1:pos:R:3 -1685.1500413459387=T 12.714666=T 12.82121=T -8.0573=T -6.2727=T -8.624=T 1.2693=T -0.2996=T 0.736=T 7.87242=T -0.13686=T 4.8746087788=T 5.17889522=T 0.284529838=T pbc="F F F"
C        0.98916109      -0.02670273       0.06386373
N        2.44628308       0.04141826       0.04638190
C        3.13451727      -1.15787538      -0.12509446
C        2.59202100      -2.35809310      -0.40800105
C        3.14414303       1.27229408       0.04659643
C        2.40364387       2.46931113       0.59535208
N        4.35861064       1.44882375      -0.34636881
H        0.56546481       0.93753533       0.35183631
H        0.66133801      -0.78941733       0.78666233
H        0.59453508      -0.29792649      -0.93030315
H        4.20834088      -1.07539412       0.05141339
H        1.53067753      -2.50820880      -0.59911419
H        3.23756889      -3.23265121      -0.44817613
H        1.93153779       2.25847486       1.56548414
H        1.62268235       2.81781994      -0.09671843
H        3.13361136       3.27593892       0.71265460
H        4.75256334       0.60166288      -0.77389868
