14
Properties=species:S:1:pos:R:3 -1450.2435349304924=T 9.425538=T 10.12527=T -9.4507=T -7.2598=T -10.73=T 0.7824=T -0.4077=T 0.24=T 10.17369=T 0.39768=T 4.3236645892=T 13.0779936856=T 0.104077637=T pbc="F F F"
O        1.33929220       0.11926412       0.77806802
C        2.34456051       0.04911047       0.10333846
C        3.08242850      -1.26918072      -0.10012083
N        4.02734922      -1.25533728      -1.21621154
C        4.88614514      -0.07908355      -1.11632091
C        4.00775762       1.13379466      -1.33794012
O        2.87775413       1.19096267      -0.41980136
H        2.31476471      -2.03851963      -0.25493493
H        3.55938021      -1.47511190       0.88368384
H        4.57911029      -2.11452633      -1.21377703
H        5.40949072       0.00705214      -0.13829290
H        5.64919119      -0.10813189      -1.90792103
H        4.55629210       2.07096734      -1.17322710
H        3.59878346       1.12331990      -2.35987258
