13
Properties=species:S:1:pos:R:3 -1423.496367169088=T 10.322836=T 10.6083=T -8.894=T -6.8547=T -9.506=T -0.0811=T -1.8639=T -0.905=T 9.08281=T 1.47959=T 3.3434436718=T 4.6581788172=T 0.38613093=T pbc="F F F"
O        0.93044664       0.05573955       0.17339313
C        2.13893422       0.09546097       0.00299792
C        2.94724834       1.32133100      -0.07171922
C        4.28803806       1.37174324      -0.24527434
C        4.72516776       2.81060543      -0.19348276
C        3.36280610       3.54039543      -0.23573239
O        2.33807689       2.53657849       0.06070629
H        2.75324447      -0.83288289      -0.11340600
H        4.94055875       0.50857652      -0.34704877
H        5.28791544       3.01630931       0.73418905
H        5.37465591       3.09887161      -1.03312465
H        3.14584577       3.93827602      -1.23929664
H        3.25791165       4.34312530       0.50367839
