17
Properties=species:S:1:pos:R:3 -1587.9784927516487=T 11.8807=T 12.34471=T -8.4645=T -6.5672=T -9.568=T 1.1092=T 0.03=T 0.882=T 8.90654=T -0.27933=T 4.7332027458=T 5.9312174708=T 0.208687781=T pbc="F F F"
C        1.35126531      -0.08263934       0.15005023
O        2.11049190       0.93437097       0.81448934
N        2.75342557       1.75684400      -0.17782526
C        2.07711123       3.04079439      -0.31224554
C        4.13370283       1.74870444       0.00961867
N        4.88175449       2.72714243      -0.33269957
C        6.31424175       2.52591863      -0.22422109
H        0.85942833      -0.64583104       0.95393902
H        2.00234687      -0.75270238      -0.43356257
H        0.58629501       0.35255471      -0.51344340
H        1.05067251       2.87288117      -0.66036205
H        2.63114973       3.62463291      -1.05570030
H        2.06487870       3.59598635       0.63989492
H        4.49032346       0.78941762       0.42558959
H        6.75300693       3.32883302       0.38885813
H        6.77808009       2.60090918      -1.22107217
H        6.59979529       1.55025293       0.21676206
