16
Properties=species:S:1:pos:R:3 -1591.8957624515115=T 10.587275=T 11.91264=T -9.0735=T -6.8953=T -10.461=T 0.8983=T -0.062=T 2.761=T 9.75017=T -2.4242=T 8.2926548268=T 11.1126296066=T 0.165213041=T pbc="F F F"
C        1.07845931       0.49263887      -0.97868564
O        0.56240118       1.40884851       0.00533962
C        0.54982509      -0.00523670       0.30313772
C        1.45956216      -0.46587609       1.41042551
C        0.92809879      -0.46392047       2.86982347
C        1.57813952      -1.86176144       2.99525611
N        1.59892868      -1.94678430       1.50745406
H        0.47401106       0.39245273      -1.88634712
H        2.16318715       0.53642356      -1.13079154
H       -0.44854218      -0.46210243       0.30509038
H        2.42090314       0.08023426       1.33848342
H       -0.16888227      -0.50702737       2.90492720
H        1.28823930       0.33074007       3.53216282
H        2.58057690      -1.80800667       3.45795712
H        0.99903664      -2.65759743       3.48767070
H        2.45534554      -2.32942510       1.10027619
