11
Properties=species:S:1:pos:R:3 -1179.5786824327374=T 10.872581=T 11.18327=T -8.939=T -6.987=T -8.602=T 0.7996=T -0.8329=T -0.1=T 8.05349=T 0.74419=T 4.2381762422=T 11.0326710352=T 0.470907251=T pbc="F F F"
C        0.96258008      -0.00973533      -0.00736970
C        2.45827035       0.07709778       0.00028196
C        3.20101332       1.23627666       0.00148462
S        4.89352708       0.87435685       0.01040719
C        4.48495296      -0.82419524       0.01169537
N        3.20459939      -1.08642353       0.00629679
H        0.50408698       0.98651345      -0.00035363
H        0.60622337      -0.56666415       0.87110894
H        0.61384998      -0.55021621      -0.89921585
H        2.85278772       2.26498513      -0.00220163
H        5.26876877      -1.57970541       0.01732593
