16
Properties=species:S:1:pos:R:3 -1504.589273114837=T 9.660333=T 10.9182=T -9.7358=T -7.463=T -11.565=T 1.0485=T 0.1137=T 3.23=T 11.29607=T -3.00171=T 9.3909972064=T 12.451666008=T 0.192772775=T pbc="F F F"
C        1.06428677      -0.15743686      -0.02004116
O        2.47864160      -0.03645507      -0.00582808
C        2.89148281       1.32424943      -0.00661517
C        4.41204566       1.34744269       0.00648862
O        4.82453122       2.70810076       0.02795992
C        6.23891097       2.82937700       0.03726018
H        0.83136260      -1.22963070      -0.01137991
H        0.62683544       0.30107967      -0.92736760
H        0.60741252       0.31963214       0.86794376
H        2.50104827       1.85562630       0.88381509
H        2.51456405       1.85059375      -0.90581251
H        4.80433873       0.83012645      -0.89136973
H        4.78733720       0.80719058       0.89810218
H        6.47131984       3.90142685       0.06195474
H        6.69060059       2.38143679      -0.86838304
H        6.68201173       2.34213023       0.92668272
