15
Properties=species:S:1:pos:R:3 -1547.1869748183055=T 12.18352=T 13.06828=T -9.2955=T -7.1607=T -9.755=T 0.0904=T -1.6211=T -0.162=T 9.27609=T 0.6756=T 5.0278430762=T 10.7965892926=T 0.388893=T pbc="F F F"
C        0.88881204      -0.10779771      -0.03453223
N        2.34644321      -0.06491730      -0.14277018
C        2.87942381       1.29403777      -0.06624911
C        4.37524383       1.28072237      -0.07554126
C        5.12662758       2.03411765      -0.90152459
C        6.54966443       2.03109334      -0.88391202
N        7.71966482       2.05361418      -0.89489209
H        0.54494179      -1.14252748      -0.16437662
H        0.35826717       0.53192406      -0.76999734
H        0.58836754       0.21886190       0.97272151
H        2.63774378      -0.48766982      -1.02731578
H        2.54696761       1.71877323       0.90005426
H        2.49601200       1.97717257      -0.85586445
H        4.85820822       0.60679526       0.63759936
H        4.65911218       2.70072999      -1.63231947
