17
Properties=species:S:1:pos:R:3 -1680.332350733809=T 11.788803=T 12.2854=T -7.9479=T -6.021=T -8.802=T 1.2887=T -0.0115=T 0.773=T 8.24093=T -0.1504=T 5.0328521106=T 11.9435837786=T 0.196304198=T pbc="F F F"
C        2.46250436      -0.80882235       1.00371361
C        2.51686788       0.24861593      -0.09410449
N        2.74211257       1.58871116       0.44418497
C        4.08823894       1.86989560       0.99854147
C        4.17287210       3.39874974       0.88331406
C        3.18962275       3.61874736      -0.24199740
N        2.42015835       2.60282429      -0.45646328
H        2.24449758      -1.79307959       0.56647733
H        1.67725666      -0.57074641       1.73492017
H        3.41854413      -0.89260035       1.54067624
H        1.56371472       0.29201248      -0.63817829
H        3.30700930      -0.00964990      -0.83231559
H        4.86251948       1.38395925       0.36705366
H        4.18134430       1.49604377       2.02553806
H        5.18497781       3.76986656       0.67491744
H        3.81580910       3.89613550       1.80333606
H        3.03031996       4.54838695      -0.78711401
