18
Properties=species:S:1:pos:R:3 -1786.281789943157=T 12.463871=T 13.56934=T -9.1758=T -7.0432=T -9.746=T 0.7681=T -0.2116=T 2.373=T 9.32294=T -2.01255=T 4.3600544802=T 10.6210375152=T 0.418482384=T pbc="F F F"
C        0.78482070       0.27054880       0.01225828
C        2.30611465       0.01875554      -0.00379784
C        2.72445765      -0.76025196       1.24882058
N        2.74930161      -0.74997149      -1.18311053
C        3.01815426       1.40359802      -0.04706146
C        4.47226373       1.36464846       0.02816667
C        5.68341893       1.36265961       0.10912169
H        0.47074376       0.83437789      -0.88018989
H        0.46969398       0.83999426       0.90102351
H        0.24141853      -0.68607106       0.01582126
H        2.45387675      -0.21251531       2.16288533
H        3.80885395      -0.93058405       1.24636003
H        2.21658817      -1.73657877       1.27955506
H        2.41417348      -0.29771074      -2.03916918
H        2.31773299      -1.67829817      -1.16367150
H        2.63224906       2.02084420       0.78166574
H        2.71858895       1.91962011      -0.97678046
H        6.75197885       1.34736464       0.17186270
