13
Properties=species:S:1:pos:R:3 -1396.8390564107488=T 10.089391=T 10.97047=T -9.9742=T -7.7968=T -10.384=T 0.5426=T -1.4445=T -0.411=T 10.28779=T 1.01554=T 3.6349471564=T 6.7956602614=T 0.416768351=T pbc="F F F"
C        1.02750748       0.24342788       0.58024930
C        2.22585392       0.15861867      -0.00517709
C        3.30332618       1.17804142       0.11541782
O        3.57450598       2.00631310      -1.03167749
C        3.00185521       2.63345204       0.13851602
C        3.91624216       3.54044620       0.89389898
O        3.52702290       4.44420714       1.61010819
H        0.28607047      -0.54833690       0.46779733
H        0.75033837       1.10058587       1.19780146
H        2.48652556      -0.72055498      -0.60364522
H        4.21927998       0.84199213       0.62256039
H        1.96170017       2.96146362       0.04739057
H        5.00496161       3.31812381       0.74726973
