13
Properties=species:S:1:pos:R:3 -1308.9726346558036=T 11.139797=T 11.77695=T -8.5433=T -6.4838=T -9.633=T 1.0155=T -0.1311=T 0.543=T 9.23879=T -0.00165000000004=T 4.4150298726=T 10.5026184866=T 0.429304533=T pbc="F F F"
N        0.88289475       2.56051471      -0.03024976
N        2.27984431       2.49356192      -0.09319432
C        2.81686882       1.33488803      -0.09260112
O        4.16288300       1.13928702      -0.06160902
C        4.94126683       2.36201647      -0.00913897
C        6.35259162       2.02277243       0.03006951
C        7.54217775       1.79135387       0.06419555
H        0.59529966       3.42442563      -0.49003458
H        0.42207797       1.76979021      -0.49880309
H        2.28683422       0.37156949      -0.10847101
H        4.64479719       2.94272195       0.88034567
H        4.70543896       2.98136936      -0.89085293
H        8.59095493       1.57668891       0.09421407
