13
Properties=species:S:1:pos:R:3 -1369.6411200328057=T 9.564283=T 10.40924=T -10.306=T -8.2778=T -10.165=T 0.8423=T -0.9042=T -0.27=T 9.51044=T 0.80343=T 5.0544380732=T 7.316227881=T 0.291245361=T pbc="F F F"
C        0.94434883      -0.11526739      -0.00111254
C        2.47254729       0.06650169       0.00797617
C        2.87264092       1.50124329      -0.01734465
N        3.11420675       2.30380182       0.99047793
C        3.38125948       3.49277936       0.35125620
N        3.32032633       3.46457689      -0.96053999
O        2.97469175       2.11463274      -1.22265812
H        0.69296231      -1.18386833       0.02244564
H        0.49958523       0.32153044      -0.90521581
H        0.48974487       0.36548328       0.87518935
H        2.91974187      -0.43927411      -0.85980607
H        2.90308891      -0.37566842       0.91634369
H        3.63387545       4.41196874       0.87472819
