14
Properties=species:S:1:pos:R:3 -1554.626649767417=T 10.762173=T 11.56761=T -9.6584=T -7.4938=T -9.412=T 0.7486=T -0.296=T 1.029=T 8.90836=T -0.39408=T 5.3536038926=T 6.1769577228=T 0.306566413=T pbc="F F F"
N        0.99069043       0.00011569       0.22707763
C        2.15331543       0.00005611       0.12318155
C        3.60828811      -0.00002536      -0.00814180
C        4.10994217      -1.25094670      -0.80940632
C        4.57009443      -0.66963183      -2.12026728
C        4.57013732       0.66883113      -2.12049703
C        4.11001886       1.25062752      -0.80984725
H        4.01945287       0.00015115       1.01203986
H        3.31523554      -2.00230781      -0.92872219
H        4.93719513      -1.74841179      -0.27608573
H        4.88592302      -1.29579519      -2.95549649
H        4.88600737       1.29467515      -2.95595056
H        4.93729204       1.74822831      -0.27668080
H        3.31533729       2.00197363      -0.92941361
