16
Properties=species:S:1:pos:R:3 -1633.9304734462462=T 12.123356=T 12.12992=T -8.1326=T -6.2705=T -8.735=T 0.3819=T -1.1782=T -0.588=T 8.16695=T 1.31973=T 3.4887056694=T 4.1900820728=T 0.399589622=T pbc="F F F"
C        0.99600999      -0.07050039      -0.16838660
C        2.50054272      -0.03615674      -0.14033112
N        3.09634109      -1.24382223      -0.42811392
C        3.17626316       1.15059041       0.07469262
C        2.43749276       2.45866893       0.21722166
C        4.62069363       1.18591243       0.19137867
O        5.30546789       2.19915585       0.35743171
H        0.61841982       0.40554921      -1.08693051
H        0.57388215       0.48483138       0.67938873
H        0.60990543      -1.09855775      -0.14234143
H        2.56782417      -2.08553065      -0.22449006
H        4.10227109      -1.33244145      -0.32245297
H        1.80517607       2.49048669       1.11958294
H        1.79033430       2.67173504      -0.64760402
H        3.17686840       3.26577418       0.29876424
H        5.14754734       0.19422511       0.14893005
