18
Properties=species:S:1:pos:R:3 -1754.5772043998809=T 11.565119=T 12.79051=T -9.1796=T -7.0897=T -10.607=T 1.045=T -0.9681=T -0.009=T 10.08896=T 0.62475=T 3.6657948732=T 11.8445437618=T 0.125737874=T pbc="F F F"
C        0.65209533      -0.55106580       0.17663538
C        2.14030589      -0.63726675      -0.16013984
C        2.43664432      -1.86897872      -1.01894539
N        2.53041194       0.59866636      -0.87020142
C        3.96576253       0.84787122      -0.92915689
C        4.28035952       1.99423686      -1.87113347
O        5.19563022       2.78078643      -1.71717519
H        0.43841346       0.31188099       0.82608323
H        0.31960743      -1.45534243       0.70417460
H        0.05708756      -0.44623627      -0.74304118
H        2.70510571      -0.73649131       0.79371434
H        1.87154193      -1.81920917      -1.96145711
H        2.14960932      -2.78471820      -0.48284793
H        3.50441305      -1.95873950      -1.26397633
H        2.07981629       1.38956870      -0.40244625
H        4.45914090      -0.03442643      -1.37749854
H        4.46360854       1.03067008       0.04445534
H        3.59039607       2.05782391      -2.75205335
