19
Properties=species:S:1:pos:R:3 -1945.3512982552652=T 12.749682=T 13.89984=T -9.0238=T -6.8458=T -9.098=T 1.1681=T -0.0335=T 1.465=T 8.45699=T -0.79334=T 6.336056558=T 0.419947749=T pbc="F F F"
C        0.98567283       0.01758101      -0.14541298
C        2.49514097      -0.01974759       0.07329176
C        3.05515745       1.14516755       0.91309837
C        4.46495625       0.67313962       1.30830464
C        4.34740629      -0.84210130       1.41967064
C        5.27049544      -1.66438891       1.93354574
C        3.00445673      -1.25712397       0.84163997
H        0.64214095      -0.84347498      -0.73812378
H        0.68002759       0.93078046      -0.67787773
H        0.45166812      -0.00405581       0.81831759
H        2.99861537       0.00185722      -0.91139754
H        2.43016738       1.27230737       1.81444699
H        3.05235453       2.10281022       0.37246711
H        5.18246726       0.92298219       0.50769248
H        4.84292981       1.13570196       2.23140601
H        5.12188212      -2.74589372       1.95820989
H        6.20657230      -1.28532191       2.34939530
H        3.06781755      -2.16433883       0.22236855
H        2.30315105      -1.47913059       1.66804697
