20
Properties=species:S:1:pos:R:3 -1960.4779630627602=T 12.114481=T 13.18756=T -8.9705=T -6.8708=T -10.421=T 0.8605=T -0.1202=T 2.987=T 9.74917=T -2.65921=T 8.3283379976=T 10.5997243218=T 0.074851573=T pbc="F F F"
C        0.95597059       0.02255948      -0.04368642
C        2.48374278       0.00986180       0.01567552
N        2.98162768       0.05454114      -1.38083027
C        3.05984441       1.13553750       0.91450960
C        4.49982548       0.69048048       1.20395785
C        4.40555293      -0.85275009       1.34721219
C        3.05530461      -1.26154642       0.69425300
H        0.52128847      -0.02913130       0.96495776
H        0.58816249      -0.82885811      -0.63326292
H        0.58858839       0.94512775      -0.52109560
H        4.00498892       0.02333969      -1.39003602
H        2.72553315       0.95334067      -1.80208957
H        2.48518724       1.17973403       1.85625652
H        2.99009060       2.12623878       0.43876932
H        5.15623404       0.96105954       0.36089181
H        4.92391234       1.17278824       2.09583773
H        5.26303775      -1.35396186       0.87560585
H        4.42170380      -1.14325579       2.40784569
H        3.15664856      -2.06999100      -0.04349094
H        2.34944577      -1.60876453       1.46339890
