13
Properties=species:S:1:pos:R:3 -1447.9971815484987=T 11.482669=T 11.99982=T -9.6928=T -7.8742=T -10.118=T -0.692=T -2.3593=T -1.119=T 9.4467=T 1.7881=T 3.2937128872=T 11.0684533948=T 0.449175447=T pbc="F F F"
C        0.95509719       0.01190350       0.13899370
C        2.43284672      -0.08704341      -0.10165988
C        3.08337690      -1.23801340      -0.35839291
C        3.18476434       1.20224930      -0.04187032
O        2.62250157       2.27354097       0.19088475
C        4.62384220       1.17575602      -0.26680123
C        5.82510428       1.23346257      -0.44493646
H        0.48745493       0.68493941      -0.59408679
H        0.75199527       0.44940669       1.12713099
H        0.47988143      -0.97455063       0.07704226
H        2.55402502      -2.19113763      -0.40661706
H        4.16128789      -1.24937295      -0.52567853
H        6.88379226       1.29516956      -0.60056853
