11
Properties=species:S:1:pos:R:3 -1243.2813692076063=T 9.402977=T 9.81882=T -10.2048=T -8.1664=T -10.934=T -1.7072=T -3.5773=T -2.002=T 9.9715=T 2.30712=T 2.9878022294=T 7.132108671=T 0.345239668=T pbc="F F F"
C        1.06108290       0.00288843       0.00491187
C        2.53244446      -0.10126930       0.00293183
N        3.22191758      -1.19496209      -0.00176393
C        4.58332977      -0.74981815      -0.00136271
O        5.57586962      -1.44288475      -0.00441418
C        4.51331312       0.78649468       0.00462056
N        3.29404753       1.17875653       0.00719057
H        0.59160946      -0.98479272      -0.00231623
H        0.73704249       0.59116602      -0.86775457
H        0.73870740       0.57677194       0.88783115
H        5.37618567       1.45460941       0.00631564
