16
Properties=species:S:1:pos:R:3 -1556.9438485675992=T 10.100216=T 11.21496=T -9.0978=T -6.9445=T -10.387=T 0.6968=T -0.3081=T 2.784=T 10.01785=T -2.44326=T 8.0861561438=T 10.8700014032=T 0.12507906=T pbc="F F F"
N        1.08569898       0.11146742      -0.27389956
C        2.51075490      -0.01820664      -0.03836732
C        3.31017978      -0.75929994      -1.09596070
C        3.36180276       0.75013208      -1.03803509
O        2.65296687       1.47363652      -2.01842601
C        4.60761743       1.47807054      -0.60932606
O        5.55268075       1.62990794      -1.67314920
H        0.65471819       0.72675609       0.41871007
H        0.61268300      -0.79263743      -0.22267111
H        2.86337284      -0.08868013       0.99722044
H        2.75033706      -1.19080518      -1.92729769
H        4.18023013      -1.33052317      -0.77061468
H        1.70970884       1.22998256      -1.85651564
H        5.12252839       0.91352218       0.18222403
H        4.31735056       2.46482781      -0.19964540
H        5.06120952       2.01917937      -2.41964609
