15
Properties=species:S:1:pos:R:3 -1635.7262841845916=T 16.104315=T 15.11182=T -8.134=T -6.2385=T -7.857=T -0.0722=T -1.5081=T -0.165=T 7.40989=T 0.76891=T 3.9975070176=T 4.108834047=T 0.644703485=T pbc="F F F"
C        0.74258638       0.02555961      -0.14580034
C        2.23334722      -0.01861428      -0.21376386
C        3.06615952       0.86692132       0.37897877
C        4.50357418       0.80078936       0.29757850
C        5.34098505       1.69262801       0.89493373
C        6.74914311       1.63837982       0.82279242
C        7.96801066       1.62690080       0.78526889
H        0.33789633      -0.89998824       0.29582331
H        0.30151074       0.10232528      -1.15327229
H        0.38626454       0.87598649       0.45136746
H        2.67546222      -0.83841073      -0.79256478
H        2.63727429       1.69192699       0.96106873
H        4.93881734      -0.01983368      -0.28166453
H        4.91329382       2.51700723       1.47659036
H        9.03761461       1.60830202       0.74638361
