17
Properties=species:S:1:pos:R:3 -1650.3628010663515=T 12.063141=T 13.02227=T -8.8991=T -6.7509=T -9.679=T 0.8871=T -0.1084=T 2.363=T 9.31495=T -1.92596=T 4.3665141508=T 10.630063696=T 0.27459407=T pbc="F F F"
C        1.48241053      -0.40032998      -0.53685771
N        2.87185198       0.05027542      -0.56252471
C        3.10192221       1.23871831       0.25077038
C        4.60961724       1.60190360       0.27266308
N        5.48780752       0.55859100       0.83168932
C        5.05108506       1.95804008      -1.08295696
C        5.35806263       2.23493950      -2.22443742
H        1.36107976      -1.25437666      -1.21733366
H        0.74616875       0.38005962      -0.82271998
H        1.22578487      -0.74416243       0.47728122
H        3.14355885       0.26485546      -1.52671267
H        2.79336515       1.01255574       1.28610293
H        2.51560292       2.12440947      -0.07990548
H        4.72219738       2.50206531       0.90241207
H        5.22997018      -0.32699337       0.38239204
H        5.26056859       0.44617998       1.82369521
H        5.66200639       2.49133894      -3.21882765
