15
Properties=species:S:1:pos:R:3 -1474.524784863145=T 13.829315=T 14.48651=T -7.752=T -5.9617=T -8.667=T 0.8239=T -0.38=T -0.012=T 7.79158=T 0.76166=T 3.2401509352=T 10.7817481684=T 0.951912225=T pbc="F F F"
N        3.07289312      -1.22125512       0.53004384
C        2.56243624      -0.25073593      -0.28850861
S        0.93778852      -0.18588890      -0.71614015
N        3.46327954       0.68854305      -0.72538435
C        4.79008173       0.85132859      -0.20155641
C        5.90380885      -0.04891098      -0.71424900
C        5.84172687       1.40170375      -1.12527712
H        4.07634388      -1.38926134       0.54575212
H        2.45660710      -2.00946021       0.69599899
H        3.02169922       1.47828855      -1.19097445
H        4.84971293       1.15167126       0.85108988
H        5.63338539      -0.78697737      -1.46986537
H        6.67771608      -0.35608323      -0.01009501
H        6.56803900       2.09653214      -0.70527633
H        5.53720153       1.61364575      -2.15034804
