15
Properties=species:S:1:pos:R:3 -1544.4974664413505=T 9.678744=T 10.65798=T -9.2634=T -7.0148=T -10.727=T 0.8308=T -0.1755=T 2.895=T 10.50678=T -2.58448=T 8.5193508292=T 10.4705929028=T 0.17312265=T pbc="F F F"
O        0.75247129      -0.08058910       0.02258674
C        2.14870339       0.01774315       0.16935777
C        3.02660475      -0.85057525      -0.68746248
C        2.42953235      -1.40376768      -1.96851420
O        1.87666909      -0.29768713      -2.69914748
C        2.48871256       0.91782235      -2.25322735
C        3.04628849       0.66290731      -0.86652539
H        0.38260155       0.81948949       0.02154686
H        2.48316735       0.13760795       1.20720828
H        3.85662308      -1.39009037      -0.22978676
H        3.22275131      -1.90826497      -2.55347261
H        1.60622159      -2.11450147      -1.79806531
H        3.31423147       1.22529015      -2.92587364
H        1.71057596       1.69924683      -2.29112813
H        3.88740577       1.27067874      -0.52876630
