13
Properties=species:S:1:pos:R:3 -1292.1524365969372=T 10.042304=T 10.12703=T -8.9383=T -6.931=T -9.509=T 0.3578=T -1.3043=T -0.304=T 8.94931=T 0.83737=T 5.013063945=T 7.0617590146=T 0.398477887=T pbc="F F F"
C        1.03801831       0.02829291      -0.09279499
C        2.53808117       0.06870611       0.07209132
C        3.21070378      -1.22291069       0.24399226
C        4.51959237      -1.50007419       0.41039449
N        3.03536480       1.26898567       0.03667500
O        4.44111633       1.29917439       0.19050536
H        0.64048857       1.04204600      -0.21442096
H        0.56378411      -0.43786238       0.78444427
H        0.76164705      -0.57192584      -0.97309628
H        2.51693744      -2.07087139       0.22829482
H        5.28488131      -0.73058216       0.43842538
H        4.83422049      -2.53900041       0.52240505
H        4.61406428       2.25523198       0.13590427
