17
Properties=species:S:1:pos:R:3 -1664.4253983216709=T 12.194183=T 12.8053=T -8.5212=T -6.4685=T -9.187=T 1.2711=T -0.0963=T 0.84=T 8.74049=T -0.21456=T 4.917780704=T 5.6587582358=T 0.187361582=T pbc="F F F"
N        0.87692541       1.97335681      -0.71523377
N        2.25075970       1.98516093      -0.83376023
C        2.92718325       1.14999457      -0.12937710
C        4.41835954       1.17084739      -0.10247892
C        5.19864027       2.20450783      -0.95539507
C        6.20401434       2.36002122       0.21635927
C        5.13931336       1.74961931       1.16534260
H        0.45404280       2.30559357      -1.58003668
H        0.47686749       1.07066853      -0.42660913
H        2.41931710       0.40105239       0.51122554
H        4.79978229       0.15107197      -0.28784345
H        4.59235863       3.10831936      -1.10319844
H        5.58194038       1.86969830      -1.92861667
H        7.07065475       1.69253269       0.10083170
H        6.56690193       3.37068480       0.44699662
H        5.47211270       1.03891827       1.93443976
H        4.52248606       2.52910204       1.63561398
