15
Properties=species:S:1:pos:R:3 -1606.4304470894685=T 11.997074=T 11.89288=T -8.6857=T -6.6294=T -8.425=T 0.5786=T -0.9488=T 0.265=T 7.90834=T 0.28338=T 5.0420890676=T 0.698436411=T pbc="F F F"
C        0.85954279      -0.03298991      -0.09925647
C        2.20450017      -0.03903003      -0.02514084
C        3.01532943       1.23422957       0.08477195
O        4.25053743       1.14889376      -0.63445918
C        5.07610268       0.09780635      -0.13999851
C        4.34721743      -1.20354909       0.02214190
C        3.00044408      -1.25902908       0.02889223
H        0.29318117       0.89910628      -0.13642106
H        0.29004703      -0.96412878      -0.11695208
H        2.47482462       2.09186174      -0.33726959
H        3.21901255       1.44474587       1.15572541
H        5.54133641       0.39419805       0.82728802
H        5.89484605      -0.00776652      -0.86900141
H        4.95216708      -2.10809752       0.11865304
H        2.47819108      -2.21727069       0.08996659
