20
Properties=species:S:1:pos:R:3 -1960.7498257964635=T 12.197868=T 13.38351=T -8.8809=T -6.7616=T -10.323=T 0.925=T -0.0093=T 3.006=T 9.68919=T -2.68923=T 8.3644179236=T 10.4503335904=T 0.114354513=T pbc="F F F"
C        1.06107948       0.00376452      -0.23238463
C        2.56517310       0.03614776       0.01367524
C        3.04107634       1.15732037       0.95145272
C        4.45326462       0.72161660       1.42759891
C        4.55506501      -0.79353578       1.11346445
C        3.13955733      -1.23178336       0.69421664
N        3.15680268      -2.48731320      -0.05901284
H        0.77431920      -0.84231940      -0.87686906
H        0.71077710       0.92238419      -0.72616599
H        0.51178231      -0.09402919       0.71833009
H        3.08683986       0.14285796      -0.95863764
H        2.35149186       1.22025336       1.81090131
H        3.03784351       2.14599364       0.46955151
H        5.23801591       1.28264834       0.89943995
H        4.59016717       0.92666968       2.49909058
H        5.23784114      -0.96754529       0.26445987
H        4.93734138      -1.39135856       1.95166432
H        2.53793520      -1.41736870       1.60568720
H        3.65381606      -2.34976260      -0.94516012
H        2.20392075      -2.76986034      -0.30223251
