14
Properties=species:S:1:pos:R:3 -1445.5322725563738=T 9.630137=T 10.59681=T -9.4931=T -7.4705=T -10.665=T 0.7486=T -0.3011=T 0.584=T 9.76986=T 0.09745=T 4.4129469078=T 6.4481894964=T 0.152360348=T pbc="F F F"
O        2.00470558      -0.39839185      -1.28368830
C        2.00403879       0.19603889       0.01715872
C        3.13588266       1.21094822       0.04974907
C        2.90127372       2.55603234      -0.69478526
C        3.06342837       3.22791999       0.68981240
O        3.09497035       4.36221304       1.12025326
N        3.19850476       1.98992490       1.30081744
H        1.27786519      -1.04155945      -1.32451574
H        2.16851465      -0.56376264       0.80542218
H        1.05022490       0.71288832       0.23400485
H        4.08822786       0.72449257      -0.21696293
H        1.91038768       2.67022395      -1.15175914
H        3.67835321       2.84073611      -1.41381193
H        3.52743229       1.74430560       2.23395537
