17
Properties=species:S:1:pos:R:3 -1730.4701550292577=T 11.989155=T 13.49041=T -9.0753=T -6.8983=T -9.044=T 1.3169=T 0.0643=T 1.26=T 8.55224=T -0.63217=T 6.1675099896=T 0.420695779=T pbc="F F F"
C        1.01298448       0.23218583      -0.90086787
C        2.49589658       0.37334584      -0.75652942
C        3.11109321       1.28316432       0.01250622
C        4.58238197       1.41657988       0.14067144
O        5.41092152       0.50663299      -0.61439964
C        5.44920089       1.90871170      -0.96084716
C        6.74536338       2.63276783      -0.71999450
H        0.70472777       0.35292227      -1.95213150
H        0.46997291       0.97317050      -0.29757994
H        0.67882082      -0.77225647      -0.59471858
H        3.12462704      -0.32630187      -1.31826634
H        2.52124288       1.98580936       0.61302638
H        4.94965894       1.60513096       1.15992823
H        4.93617723       2.13315095      -1.90592747
H        7.16411861       2.37103414       0.26097507
H        6.59115394       3.72143159      -0.76067906
H        7.48342784       2.36817018      -1.49157587
