10
Properties=species:S:1:pos:R:3 -1147.290405850192=T 7.89626=T 8.09845=T -10.1505=T -8.1031=T -10.475=T 0.213=T -1.5824=T -0.719=T 10.00073=T 1.19823=T 4.162705964=T 5.606894892=T 0.42949754=T pbc="F F F"
O        1.11591950      -0.11956101      -0.28125676
C        2.28661963       0.00043905      -0.00226462
O        3.08837988      -1.09323270       0.33141593
C        4.41829995      -0.63276987       0.60903440
C        4.37937073       0.85004393       0.41943220
C        3.13909189       1.21060742       0.06467402
H        5.12022134      -1.13026518      -0.08139325
H        4.68896482      -0.92167948       1.63867264
H        5.24867666       1.49078455       0.55972650
H        2.75186561       2.20198331      -0.15261106
