14
Properties=species:S:1:pos:R:3 -1421.088960081873=T 9.109645=T 10.21457=T -9.8803=T -7.7288=T -11.707=T 1.0028=T 0.1062=T 2.795=T 11.02083=T -2.43646=T 9.1853664254=T 11.6530225876=T 0.26071599=T pbc="F F F"
C       -0.12249963       0.72485939       0.15843518
C       -0.63421358      -0.61551884      -0.30942749
C        0.84621194      -0.41001252      -0.11292003
C        1.60573195      -1.01920771       1.01956314
C        0.99599004      -1.80650402       2.10500301
O        1.74056357      -2.46325855       1.06369137
H       -0.13983877       1.56549578      -0.53525832
H       -0.29585415       0.99190189       1.20191801
H       -0.99182794      -0.70218174      -1.33531816
H       -1.17490378      -1.23492180       0.40581545
H        1.43615998      -0.31765632      -1.02892730
H        2.54395152      -0.50111711       1.26163959
H       -0.08084266      -2.00472129       2.10165482
H        1.46858150      -1.80779717       3.09366072
