17
Properties=species:S:1:pos:R:3 -1722.909327839289=T 11.790464=T 12.97803=T -8.3969=T -6.3332=T -8.894=T 0.9583=T 0.0888=T 1.272=T 8.44396=T -0.68425=T 5.9752820952=T 0.318151313=T pbc="F F F"
C        3.64455060      -0.69916465      -1.34956443
O        3.03022138      -0.11788806      -0.19864107
C        3.49222728       1.11221732       0.17462508
C        4.45962381       1.85041640      -0.39859749
C        4.88048313       3.18009780       0.11928028
C        4.79262874       3.54283244       1.58334292
C        6.14605006       3.32495350       0.94696223
H        3.16273189      -1.67285393      -1.49261049
H        4.72727631      -0.83824777      -1.19134686
H        3.48639161      -0.07126812      -2.24228015
H        2.95188939       1.45686326       1.05864954
H        4.97305118       1.49331856      -1.29489710
H        4.70492769       4.01228967      -0.57129598
H        4.44229431       2.78411006       2.28323644
H        4.50089655       4.56166160       1.83906593
H        6.78329676       4.19185414       0.76809785
H        6.67612934       2.40676779       1.20432328
