15
Properties=species:S:1:pos:R:3 -1603.1452509094447=T 11.049526=T 11.93177=T -9.194=T -7.1296=T -9.862=T 0.9764=T -0.8164=T 0.271=T 9.67116=T 0.50288=T 3.7555111428=T 6.5235357886=T 0.405242602=T pbc="F F F"
C        0.83526955       0.30839961       0.70472811
C        1.97584293       0.19902920       0.01145086
C        3.09195367       1.20712606      -0.00347768
C        2.75161479       2.70145639      -0.34738500
C        3.61505435       3.11894032       0.84797372
O        4.11896776       4.16357640       1.19294906
C        3.69720457       1.67929551       1.36683071
H        0.07282896      -0.46959625       0.66154059
H        0.61320334       1.17100639       1.33952083
H        2.12533517      -0.69484343      -0.60236549
H        3.90033335       0.85552356      -0.65901467
H        1.68985744       2.93543589      -0.17333800
H        3.04496293       3.09233477      -1.33085867
H        4.69140145       1.31219345       1.65467546
H        3.00143974       1.51743214       2.20476015
