18
Properties=species:S:1:pos:R:3 -1795.801983090737=T 11.430353=T 12.49363=T -8.6719=T -6.6869=T -10.471=T 0.947=T 0.0755=T 3.051=T 9.76379=T -2.78764=T 8.6016651346=T 11.062092913=T 0.097126309=T pbc="F F F"
C        1.00932501       0.07279328       0.01171595
C        2.52649006       0.02331111       0.10628341
C        3.12121045      -1.15491046       0.96212219
C        3.96560099      -0.30033071       1.92231651
C        4.54574568       0.75377288       0.94798040
N        3.11000583       1.24088583       0.78299532
C        2.97108701       0.83689408       2.25031237
H        0.63294060      -0.81668772      -0.51451040
H        0.68609666       0.96551307      -0.54168760
H        0.53368622       0.09419588       1.00334474
H        2.94252771       0.00710896      -0.91373711
H        3.72753048      -1.85353809       0.36732642
H        2.34265173      -1.73025760       1.48606421
H        4.56508452      -0.81901220       2.68475230
H        5.02960558       0.41565953       0.01843163
H        5.14852377       1.53106322       1.43713734
H        3.39156901       1.62879152       2.88456846
H        1.95395869       0.58416741       2.58252384
