17
Properties=species:S:1:pos:R:3 -1657.2688731467163=T 10.483269=T 11.33694=T -8.6051=T -6.5032=T -10.066=T 0.9624=T 0.0036=T 3.244=T 9.32843=T -2.97774=T 8.224487324=T 12.210637224=T 0.22260856=T pbc="F F F"
C        1.00163643      -0.03397005       0.00199756
C        2.52216916      -0.05214324       0.09041040
C        3.14804924       1.19523591       0.75108100
C        4.44291581       0.67810671       1.43514400
C        4.44214983      -0.83921633       1.15304475
N        3.01712955      -1.13367558       0.95916277
H        0.61585142      -0.95634022      -0.45818360
H        0.65623593       0.81138220      -0.61088714
H        0.56484906       0.05669455       1.00743176
H        2.93975252      -0.14227106      -0.93962555
H        2.45135092       1.60385799       1.49829799
H        3.34243659       1.98452682       0.01166240
H        5.34978592       1.15785386       1.04196407
H        4.41118708       0.86892686       2.51666927
H        5.05075556      -1.04960458       0.24654951
H        4.85603481      -1.43195654       1.98215879
H        2.87330017      -2.05239729       0.53338205
