15
Properties=species:S:1:pos:R:3 -1576.6427199971365=T 12.758705=T 13.47857=T -8.8711=T -6.7606=T -8.5=T 0.6762=T -0.8739=T 0.613=T 8.09113=T -0.036=T 4.0944640696=T 5.9303991632=T 0.457384798=T pbc="F F F"
O        2.53873784      -0.50130887      -1.47809189
C        2.23394681      -0.15027222      -0.12124112
C        2.92004344       1.18189809       0.18815470
C        4.41420827       1.09997961       0.15702743
C        5.21163353       1.45853706       1.18548325
C        6.62719277       1.38505307       1.17148107
C        7.84385674       1.33786712       1.20469734
H        2.18367837      -1.38934015      -1.64808855
H        2.59354402      -0.92681335       0.57864056
H        1.14287473      -0.03635002       0.01956006
H        2.57508960       1.53978712       1.17100873
H        2.57374901       1.91057763      -0.56663369
H        4.86577497       0.71840786      -0.76268059
H        4.75816572       1.84044473       2.10809159
H        8.91326420       1.29171232       1.21908112
