14
Properties=species:S:1:pos:R:3 -1404.582760300336=T 10.880346=T 11.00405=T -9.7651=T -7.7253=T -10.781=T -0.2512=T -2.066=T -1.539=T 10.27995=T 1.89542=T 3.2090428478=T 5.2929499414=T 0.352403644=T pbc="F F F"
C        5.71842844      -0.39770628       1.00421626
O        6.21894681       0.93386522       0.77322116
N        5.16516663       1.76065981       0.42704870
C        5.55695693       2.98229254       0.20986665
C        6.95379162       3.49772251       0.30533869
C        4.43276580       3.87323358      -0.16204361
O        4.56517119       5.06390872      -0.41069852
H        5.00034993      -0.39767415       1.83563260
H        6.59988224      -0.99533885       1.26214438
H        5.24257848      -0.79057799       0.09540880
H        7.35688193       3.33237704       1.31476049
H        6.96412299       4.56826853       0.07145790
H        7.61124594       2.95829634      -0.39145232
H        3.44233107       3.36191298      -0.19748118
