19
Properties=species:S:1:pos:R:3 -1938.231322459004=T 12.002211=T 13.26478=T -10.3752=T -8.2189=T -11.621=T 0.9475=T 0.0604=T 2.917=T 11.30622=T -2.59092=T 9.6354975984=T 9.9376390818=T 0.087802934=T pbc="F F F"
C        1.00533308      -0.10118926      -0.05746675
C        2.50816505       0.05749061      -0.01086951
C        3.45352923      -0.54821154      -1.09857310
C        4.53290827      -0.35860990       0.00446121
C        3.40500403      -0.70653573       1.01665929
C        4.60330975       1.17673556       0.12107730
C        3.07337075       1.49236463       0.10936953
H        0.53643788       0.30815428       0.85135059
H        0.71439110      -1.15909801      -0.13943276
H        0.57822226       0.43393692      -0.92035164
H        3.57338458       0.00021878      -2.04660858
H        3.23150522      -1.60749209      -1.29239531
H        5.48250711      -0.90836771      -0.01493892
H        3.17789985      -1.78209857       1.04011136
H        3.47977371      -0.30596235       2.04030062
H        5.09637301       1.50063454       1.04960579
H        5.13761488       1.63381141      -0.72494676
H        2.77362079       2.12060883      -0.74356390
H        2.73267945       1.98790961       1.03154156
