14
Properties=species:S:1:pos:R:3 -1377.8652849759121=T 10.728585=T 11.32811=T -9.2112=T -7.2367=T -10.515=T 1.0115=T -0.7294=T 0.167=T 10.04026=T 0.42331=T 5.330220133=T 6.280820795=T 0.274365462=T pbc="F F F"
C        2.75030021      -1.09018294      -0.34110077
O        3.89345118      -0.42623284       0.21634043
N        3.78309036       0.94795155      -0.03499962
C        4.80130889       1.58990931       0.41802939
C        4.83820976       3.05210403       0.25435582
C        5.60655615       3.90094143       1.18958202
O        6.12848556       3.61291641      -0.11487792
H        2.89275624      -2.15202948      -0.10789834
H        2.70724111      -0.94706923      -1.43061294
H        1.82141642      -0.72404587       0.12023813
H        5.64335161       1.08378947       0.90893438
H        3.98008293       3.48739544      -0.26749694
H        6.14136868       3.43287225       2.02346490
H        5.27935089       4.93345047       1.35186148
