20
Properties=species:S:1:pos:R:3 -1887.766623886584=T 11.90971=T 12.97823=T -9.2118=T -7.0066=T -10.173=T 0.7996=T -0.1453=T 2.995=T 9.48232=T -2.73303=T 8.185927678=T 12.5396464736=T 0.133847541=T pbc="F F F"
C        1.26576307       1.93220177       0.91321852
N        2.69091609       2.02749422       1.24270542
C        3.55903039       1.44325086       0.20787325
C        5.05008179       1.57247148       0.53942191
C        5.67611158       2.97226494       0.40769588
C        5.26818924       4.01416064       1.45699935
O        3.94228776       4.50496836       1.32182103
H        0.66793625       2.31424010       1.75131756
H        0.93521726       0.90032489       0.68263308
H        1.05515928       2.56052748       0.03556943
H        2.86435609       1.53910083       2.12639011
H        3.34390100       1.97201342      -0.73642938
H        3.31235373       0.37457565       0.03730095
H        5.58764251       0.88770204      -0.13653935
H        5.22851343       1.18172624       1.55900527
H        5.45876315       3.38199227      -0.59396069
H        6.77222389       2.85522571       0.46778043
H        5.93237169       4.88838699       1.36360701
H        5.44156238       3.58986355       2.47065457
H        3.34960942       3.70360855       1.37190565
