13
Properties=species:S:1:pos:R:3 -1360.5151674197512=T 10.190809=T 10.69141=T -8.968=T -7.0895=T -10.077=T 0.6317=T -1.2651=T -0.006=T 9.98427=T 0.78055=T 3.7468817172=T 6.0143376852=T 0.218691695=T pbc="F F F"
N        1.19008775       0.14608630       0.53635958
C        2.40588047       0.10507875       0.11831463
N        3.23519689       1.19384339       0.23592506
C        2.72360058       2.57109824       0.42635139
C        3.87597125       3.04227965      -0.47220887
O        4.29029900       4.11027073      -0.84324043
C        4.30216930       1.57614781      -0.71885316
H        0.74106294      -0.76655042       0.41385066
H        2.91403088      -0.76730593      -0.32850288
H        2.73595415       2.93548991       1.46459885
H        1.71542951       2.72269373       0.00312652
H        4.14253067       1.24614748      -1.75958050
H        5.32584660       1.32474036      -0.40089084
