17
Properties=species:S:1:pos:R:3 -1694.0720465394354=T 12.13998=T 12.68193=T -8.9161=T -6.9489=T -9.692=T 1.1633=T -0.4173=T 0.706=T 9.14628=T -0.27559=T 4.8158146176=T 6.4992965256=T 0.597546563=T pbc="F F F"
C        0.78520604       0.02642369      -0.20090320
C        2.29520715       0.28919384      -0.16070757
C        2.98121150      -0.31780264      -1.36089679
C        3.93464858      -1.25657642      -1.31282519
C        2.64000624       1.79032754      -0.05762272
N        3.99895768       2.02504954       0.07155973
N        1.81879939       2.78072985      -0.02400811
H        0.28617506       0.43560673       0.68873069
H        0.59432573      -1.05448426      -0.22871961
H        0.32278621       0.47059074      -1.09512057
H        2.71436462      -0.18513050       0.74428879
H        2.64888658       0.06283983      -2.33452500
H        4.28454433      -1.66510459      -0.36085901
H        4.38862674      -1.65504070      -2.22150123
H        4.61726538       1.35427913      -0.37759164
H        4.26199430       3.00094915      -0.04668096
H        0.84947445       2.44970907      -0.05616760
