17
Properties=species:S:1:pos:R:3 -1614.5102577811153=T 14.308661=T 14.79245=T -7.5805=T -5.8516=T -8.482=T 0.5414=T -0.4077=T 0.11=T 7.6171=T 0.66482=T 3.2496358642=T 10.6822122076=T 0.671781063=T pbc="F F F"
C        1.55299263       1.98933093       0.09822408
C        1.83421191       0.57884483      -0.41965570
N        3.19792105       0.12528273      -0.15703543
C        3.58117527      -0.49200235       0.99832379
S        2.51374294      -0.96341116       2.22097902
N        4.92467411      -0.73202216       1.12119759
C        5.91642448      -0.55923179       0.07595517
H        0.51231134       2.27051616      -0.11901335
H        2.21053756       2.73317512      -0.37552586
H        1.70092334       2.02661765       1.18579179
H        1.67213260       0.51910124      -1.50704253
H        1.16771985      -0.14459321       0.06999780
H        3.92501314       0.48830660      -0.76806761
H        5.15767776      -1.27432868       1.94704386
H        5.66156446      -1.12080979      -0.83968426
H        6.87932819      -0.93084780       0.44391265
H        6.05778937       0.50380166      -0.18562101
