17
Properties=species:S:1:pos:R:3 -1642.8356099310447=T 11.193598=T 11.88181=T -9.2234=T -7.0111=T -9.506=T 0.9273=T -0.0121=T 1.346=T 8.98529=T -0.783=T 6.6520100818=T 0.436039368=T pbc="F F F"
C        0.82736899      -0.29243402      -0.02393112
C        2.35280335      -0.13956483       0.03325186
N        3.09501979      -1.12833711      -0.77187936
C        2.80741508       1.26994616      -0.39742747
C        2.33469342       2.36931301       0.50610838
C        1.60522088       3.42646945       0.13054224
H        0.31976834       0.45256661       0.60712125
H        0.52164841      -1.29340455       0.31534358
H        0.46559632      -0.15872389      -1.05679869
H        2.67942336      -0.28742495       1.07912974
H        2.81829571      -1.03482859      -1.75539605
H        2.81060283      -2.07258888      -0.49602155
H        2.46773134       1.46394010      -1.43083970
H        3.91062428       1.25620181      -0.41761697
H        2.63152270       2.28099571       1.55903510
H        1.28706949       3.55842073      -0.90723253
H        1.30681573       4.19749326       0.84259130
