19
Properties=species:S:1:pos:R:3 -1837.3624392240229=T 12.014606=T 12.81732=T -8.867=T -6.8908=T -9.894=T 0.7634=T -0.2072=T 1.103=T 9.12128=T -0.45826=T 4.8610323118=T 6.4019179212=T 0.176239607=T pbc="F F F"
C        0.97254902      -0.20875011       0.42884503
C        2.42427586       0.02399843      -0.01669897
C        3.37322791      -0.66331916       0.98969331
C        2.60976833      -0.59802707      -1.41936412
C        2.74340626       1.53714810      -0.06687813
N        4.04135046       1.84593616      -0.46016995
N        1.97005722       2.51050397       0.27103171
H        0.25371717       0.25646325      -0.26166060
H        0.79065252       0.18291052       1.44038052
H        0.76245134      -1.28784067       0.45198529
H        3.24906208      -0.23682677       1.99559951
H        4.42667300      -0.54157206       0.70429923
H        3.15219075      -1.74014089       1.04319595
H        1.99134737      -0.08243697      -2.16847484
H        2.31130035      -1.65691287      -1.40121642
H        3.65609313      -0.56911632      -1.75901789
H        4.48434499       1.23275197      -1.13695906
H        4.16853572       2.83780141      -0.65252907
H        1.07368653       2.15780908       0.61836849
