16
Properties=species:S:1:pos:R:3 -1640.7335336501603=T 12.394756=T 14.18046=T -8.9226=T -6.7865=T -9.132=T 0.8873=T -0.0341=T 2.471=T 8.69004=T -1.99852=T 4.1568414262=T 10.1260730046=T 0.410428533=T pbc="F F F"
C        0.92850939       0.00297094      -0.02358380
C        2.38315311       0.01197694      -0.00972819
C        3.59967347       0.01183684       0.01574109
C        5.05242931       0.02588509       0.04219518
C        5.80488636       1.09789061       0.88900857
C        6.77743490      -0.04312539       1.26245924
N        5.72224153      -1.02275509       0.88017183
H        0.52615161       1.02706823      -0.00703734
H        0.52909541      -0.52622785       0.85457117
H        0.53819707      -0.49547375      -0.92357976
H        5.43645415       0.04699833      -0.99815836
H        5.19686826       1.42444376       1.74122706
H        6.20312024       1.96517364       0.35059482
H        7.66709340      -0.05166258       0.60504619
H        7.10431403      -0.11717213       2.31023052
H        6.04838775      -1.83544761       0.35064177
