15
Properties=species:S:1:pos:R:3 -1528.40449878336=T 10.526356=T 11.1173=T -8.9784=T -6.9581=T -9.907=T 1.1212=T -0.5095=T 0.711=T 9.50352=T -0.0711=T 5.0015704428=T 11.0021704792=T 0.150040415=T pbc="F F F"
C        0.94163874      -0.07883093       0.07495043
C        2.45020574       0.12179808      -0.13147063
C        3.03811539       1.27389283       0.65942368
N        4.08156250       1.01554309       1.36176106
N        4.48361175      -0.35907743       1.13953906
C        3.50633008      -1.25730163       1.80792070
C        3.36875908      -0.99223963       0.34742410
H        0.58401582      -0.94336153      -0.50136290
H        0.37609652       0.80263702      -0.26040041
H        0.70559488      -0.25401266       1.13403558
H        2.63045970       0.29482740      -1.20944491
H        2.61039171       2.28082773       0.68076424
H        3.91799224      -2.21295585       2.13843768
H        2.81204452      -0.77633512       2.50065806
H        3.68594134      -1.76106137      -0.35855574
