15
Properties=species:S:1:pos:R:3 -1580.0372795309443=T 12.906542=T 13.79804=T -9.0935=T -7.0233=T -8.739=T 0.401=T -1.2066=T 0.438=T 8.30145=T 0.09907=T 3.7801099652=T 6.0001660854=T 0.480546836=T pbc="F F F"
C        0.96328133      -0.10657281       0.00811475
C        2.49463090      -0.03139786      -0.03027310
O        3.03600349      -0.74229486      -1.16350997
C        2.97312617       1.35125257       0.01351232
C        3.33766428       2.51670621       0.00135107
C        3.83073586       3.84613235      -0.00135039
C        3.06016147       4.95135334       0.00021547
H        0.57604661       0.35208883       0.92856212
H        0.65005162      -1.15808873      -0.02914886
H        0.52950929       0.42608086      -0.85021789
H        2.90016622      -0.57286211       0.84161863
H        2.89034274      -0.18229143      -1.94813342
H        4.92092732       3.95332076      -0.00123973
H        1.97148561       4.88478853       0.00146309
H        3.50983710       5.94401436       0.00336590
