15
Properties=species:S:1:pos:R:3 -1596.9176205727=T 11.287442=T 11.77152=T -8.5686=T -6.4629=T -8.411=T 0.4869=T -1.0964=T 0.514=T 7.94165=T 0.00771999999998=T 4.5725168898=T 7.0860974664=T 0.405762633=T pbc="F F F"
C        2.73169331      -1.20550785      -0.34131957
O        2.18117739       0.00201426       0.17236734
C        3.06714930       1.10961551       0.05154645
C        2.58752444       2.31336063       0.82434778
C        2.70174482       3.40859207       0.04264817
C        3.17137875       3.00819412      -1.29589808
C        3.34077315       1.66805989      -1.33525030
H        2.00978754      -2.00045113      -0.11689746
H        3.69709913      -1.44639341       0.14282079
H        2.88428989      -1.16281938      -1.43416884
H        4.06469409       0.83130072       0.47577518
H        2.25475865       2.25856057       1.85831409
H        2.48865852       4.43523320       0.33923071
H        3.35530930       3.70349525      -2.11510704
H        3.69256172       1.07838556      -2.17878921
