13
Properties=species:S:1:pos:R:3 -1365.4373255928422=T 10.384055=T 10.43215=T -7.4472=T -5.53=T -7.932=T 0.5506=T -0.4853=T 0.92=T 7.45964=T -0.35252=T 4.6366176518=T 6.1788671072=T 0.455028453=T pbc="F F F"
N        0.95050707      -0.24276848      -0.00561695
N        2.34140071      -0.08162080       0.00818642
C        3.11571054       1.07397544       0.12985944
C        4.43290974       0.66573898       0.09718719
C        4.47676896      -0.75831165      -0.04489552
C        3.16573707      -1.18755413      -0.09590381
O        2.62589736      -2.42452745      -0.22252028
H        0.54971498       0.28102752      -0.78938457
H        0.55239364       0.11733329       0.86694555
H        2.65284267       2.04977236       0.22491063
H        5.29332699       1.32452923       0.16738168
H        5.35521023      -1.39115021      -0.10322023
H        1.65235004      -2.28096411      -0.20852956
