15
Properties=species:S:1:pos:R:3 -1491.5768539813657=T 10.212657=T 10.7417=T -8.2257=T -6.2043=T -9.302=T 0.8536=T -0.116=T 0.668=T 8.83456=T -0.12547=T 5.1667073962=T 9.2601547806=T 0.13850952=T pbc="F F F"
C        0.98003647      -0.00548406       0.38747153
C        2.41802896      -0.04744571      -0.11336087
C        2.80307657       1.23681006      -0.84341672
O        4.13904510       1.15040909      -1.38690414
C        4.51779826      -0.11216079      -1.76767366
N        3.86919297      -1.21263255      -1.65264158
N        2.59230200      -1.13320132      -1.08344323
H        0.84033476       0.81615584       1.10422365
H        0.71838769      -0.94136796       0.90243277
H        0.28078594       0.13049867      -0.44973111
H        3.11359251      -0.16634227       0.74390082
H        2.80854038       2.09840611      -0.16098608
H        2.09595976       1.42855757      -1.66668957
H        5.50395328      -0.11433977      -2.23161339
H        2.37490533      -2.04882293      -0.68889842
