19
Properties=species:S:1:pos:R:3 -1828.3498714210036=T 11.002075=T 12.28359=T -9.8891=T -7.6213=T -11.717=T 0.7762=T -0.249=T 2.536=T 11.45435=T -2.21627=T 9.2573031026=T 0.07276078=T pbc="F F F"
C        1.10395705      -0.20804079      -0.15366840
C        2.62181017      -0.13721457      -0.32976833
C        3.21954518       1.28065657      -0.34100593
C        2.69294549       2.13689761      -1.49136813
O        2.86320734       1.87740925       0.94158539
C        4.76194732       1.21607108      -0.39180795
O        5.31313347       0.60995684       0.77007883
H        0.77881244      -1.25505162      -0.07533645
H        0.56379291       0.23786374      -1.00169793
H        0.79211280       0.31348755       0.76132141
H        2.91918242      -0.62976105      -1.27030105
H        3.11748742      -0.69555644       0.47918455
H        2.94046053       1.68350393      -2.46263120
H        3.14675884       3.14077045      -1.47019426
H        1.60275358       2.25142739      -1.43228163
H        2.98908801       2.83975763       0.86034685
H        5.15219848       2.24736653      -0.52200787
H        5.09459329       0.62159936      -1.25739287
H        4.79424327       0.98029653       1.51319496
