17
Properties=species:S:1:pos:R:3 -1687.846998597146=T 11.475926=T 12.18892=T -8.0714=T -6.0588=T -8.857=T 0.8964=T -0.1205=T 0.939=T 8.36804=T -0.26023=T 5.1638061238=T 10.8987661552=T 0.183284611=T pbc="F F F"
C        0.89652760       0.04104667       0.06317467
C        2.43167946      -0.04325301      -0.01946464
C        3.01409084      -1.30489706       0.64479604
N        3.26382861      -0.82679271       2.02444253
N        3.54883690       0.54536797       1.96631615
C        3.09665762       1.02004384       0.85101375
C        3.13640432       2.47607916       0.52975658
H        0.42974249      -0.75840468      -0.53036117
H        0.52898705       1.00229235      -0.32376688
H        0.55942067      -0.06015624       1.10475355
H        2.74575528       0.03963384      -1.07193241
H        3.95431694      -1.60520941       0.14462832
H        2.32022034      -2.15763768       0.64370125
H        4.01853528      -1.30510163       2.51631639
H        3.65376450       2.65833720      -0.42601467
H        3.65629552       3.02361298       1.32529260
H        2.12124655       2.89393841       0.42665793
