14
Properties=species:S:1:pos:R:3 -1476.888691323456=T 9.905551=T 11.03889=T -10.2457=T -8.0082=T -11.607=T 0.7959=T -0.1917=T 1.27=T 11.18217=T -0.8526=T 5.3426931246=T 10.3664322642=T 0.37944856=T pbc="F F F"
C        0.89285057      -0.01812975       0.14093596
C        2.41348288       0.00169093      -0.04994276
C        3.15628954       1.02683148       0.86073188
O        3.57485595      -0.02510637       1.76872683
C        3.17750182      -1.04581327       0.81660017
C        2.77935788       0.03538047      -1.46015848
N        3.08145960       0.06218864      -2.58743430
H        0.66046978      -0.04321941       1.21404080
H        0.45103663      -0.90307140      -0.33644122
H        0.43251734       0.87680191      -0.29883966
H        2.51477048       1.77292484       1.35402763
H        4.01462564       1.51901515       0.37497944
H        4.04552840      -1.49923063       0.31076328
H        2.55156350      -1.82516260       1.27744043
