16
Properties=species:S:1:pos:R:3 -1612.6222639419277=T 11.145205=T 12.30761=T -9.9321=T -7.5825=T -9.739=T 0.9322=T -0.0015=T 2.368=T 9.29466=T -1.94937=T 4.3444818386=T 10.559949613=T 0.640779853=T pbc="F F F"
C        0.97235772      -0.13045741      -0.08890089
C        2.48933121      -0.01927813       0.06887335
C        3.02423849       1.43452304       0.01640725
C        2.49876232       2.31258631       1.16954806
C        4.48719944       1.43699356      -0.00614633
C        5.70194164       1.42598070      -0.00369822
H        0.66423487      -1.18528270      -0.11193877
H        0.63282465       0.33432985      -1.02766665
H        0.43107735       0.34950262       0.73874193
H        2.98615122      -0.59302070      -0.72855182
H        2.80887941      -0.47273611       1.02171809
H        2.67956581       1.88053339      -0.93606541
H        2.79698312       1.89063669       2.14036980
H        1.40317048       2.38269453       1.14049577
H        2.90833346       3.32875046       1.10040950
H        6.77264879       1.42080389      -0.01046565
