15
Properties=species:S:1:pos:R:3 -1556.8477476010798=T 10.27383=T 11.18805=T -8.6309=T -6.487=T -8.844=T 0.9383=T 0.043=T 1.213=T 8.33349=T -0.61174=T 5.848915564=T 0.295456045=T pbc="F F F"
C        0.98721599      -0.08436800       0.04102325
C        2.47572635       0.03472200       0.06619678
C        3.19480772       1.14111353      -0.20272511
C        4.68198391       1.17652324      -0.01022603
O        5.14949620      -0.02350792       0.63592458
C        4.48882645      -1.14303735       0.11209015
O        3.08532054      -1.15378952       0.41808287
H        0.66790922      -0.84139401      -0.69097381
H        0.52505614       0.87700142      -0.21209470
H        0.61597593      -0.40546228       1.02594055
H        2.68494748       2.05245613      -0.51465569
H        5.22448709       1.32413278      -0.96661428
H        4.97366102       1.99794898       0.66309368
H        4.91364472      -2.03418494       0.58785206
H        4.59154124      -1.18154404      -0.99089429
