18
Properties=species:S:1:pos:R:3 -1755.8380829609068=T 11.435779=T 12.57704=T -8.7381=T -6.6231=T -10.065=T 0.9366=T -0.9838=T -0.027=T 9.41989=T 0.66137=T 3.639237072=T 8.2023930188=T 0.115216317=T pbc="F F F"
C        1.52464076      -0.78621056       0.52108206
C        3.00874491      -0.74472794       0.17618196
N        3.49342891       0.64460413       0.14757553
C        4.91091411       0.76992914      -0.15801636
C        5.27366241       2.22203469      -0.52394453
C        5.85741229       0.32595381       0.95689355
O        5.51890502       0.13399183       2.11024723
H        1.14923302      -1.81864912       0.49538605
H        0.94243516      -0.18191269      -0.18867822
H        1.34407413      -0.39337306       1.53355126
H        3.16645571      -1.16683410      -0.83131130
H        3.57102392      -1.38260205       0.88717538
H        3.32983740       1.06195027       1.07078084
H        5.13471821       0.13274662      -1.03508247
H        5.03742684       2.89569944       0.31288627
H        4.68635042       2.53396686      -1.39623600
H        6.34279415       2.32916199      -0.75712818
H        6.93366263       0.22044073       0.65116693
