16
Properties=species:S:1:pos:R:3 -1593.6167380513466=T 12.297464=T 12.35774=T -8.8196=T -6.8526=T -9.334=T 0.3661=T -1.2416=T -0.446=T 8.70791=T 0.97052=T 5.1300571346=T 0.404343648=T pbc="F F F"
C        2.31263806      -0.13241544       1.45963394
C        2.59418588       0.37393616       0.03555094
C        2.96561677       1.83865535      -0.01407796
C        2.09600472       2.79116772      -0.41638024
C        4.30575275       2.24900402       0.39194827
N        5.19077455       1.37461939       0.73486719
O        6.40979576       2.00452238       1.06756550
H        2.04252276      -1.19801402       1.44137111
H        1.48035351       0.42227721       1.91656140
H        3.19632051      -0.01674368       2.10104710
H        1.70620732       0.21723794      -0.59528995
H        3.41511058      -0.21631831      -0.40026759
H        1.08797058       2.53383722      -0.74469188
H        2.37164929       3.84736104      -0.42926372
H        4.55362884       3.32002389       0.38911420
H        6.97433811       1.24411913       1.29670168
