16
Properties=species:S:1:pos:R:3 -1612.3344388437265=T 10.479961=T 11.38108=T -8.8802=T -6.7416=T -10.178=T 0.8489=T -0.0973=T 2.908=T 9.76812=T -2.58176=T 7.9705763946=T 10.7859884896=T 0.170618418=T pbc="F F F"
N        1.42938218      -0.41969728      -0.36358663
C        2.74754949       0.01328099       0.02686768
C        3.67614916      -1.05013341       0.58846695
C        3.95374395      -0.43438908      -0.76264445
O        4.92607446       0.59549191      -0.78832127
C        4.23857335       1.83306700      -0.49330413
C        3.07265367       1.46553910       0.43945397
H        1.02559335       0.21691998      -1.05567061
H        0.80083353      -0.43203308       0.44397499
H        3.29027585      -2.07030493       0.59791240
H        4.34769794      -0.77537209       1.40314010
H        3.86462684      -1.02491358      -1.67716342
H        4.97490891       2.51982432      -0.05279578
H        3.85718659       2.27781274      -1.43288324
H        3.35954625       1.53771033       1.50041743
H        2.20115447       2.11629709       0.27766600
