16
Properties=species:S:1:pos:R:3 -1630.5789286924012=T 10.652974=T 11.97156=T -10.6817=T -8.4842=T -11.763=T 0.6719=T -0.3962=T 1.291=T 11.40531=T -0.92331=T 5.3645270592=T 12.1618859288=T 0.242024798=T pbc="F F F"
C        1.86016794      -0.93499090       0.60031431
C        3.23430433      -0.29959618       0.38504937
C        3.17394560       1.20788059       0.13729611
O        2.61876153       1.92964818       1.24032452
C        4.56264391       1.80857940      -0.21350938
C        5.11454601       1.29240111      -1.45979162
N        5.52811932       0.85979354      -2.46145692
H        1.95462572      -2.00755609       0.81725745
H        1.23432625      -0.82928616      -0.29812130
H        1.32573375      -0.46245498       1.43578499
H        3.73987792      -0.77449834      -0.47109852
H        3.88344298      -0.48238359       1.26263809
H        2.49192298       1.41504439      -0.70368902
H        3.05790565       1.61823829       2.05348841
H        5.27661767       1.60072773       0.60101077
H        4.46151843       2.90118300      -0.29061726
