14
Properties=species:S:1:pos:R:3 -1465.0370066266205=T 11.815282=T 12.01732=T -9.3314=T -7.3306=T -9.872=T -0.012=T -1.7192=T -0.709=T 9.36545=T 1.29935=T 3.4649623504=T 5.2097553354=T 0.633114878=T pbc="F F F"
O        1.24605117      -0.37320161      -0.80336557
C        2.38897055      -0.11707665      -0.44381181
C        2.84313011       1.19290075       0.01985814
C        4.12501886       1.37247596       0.39680700
N        4.61686439       2.61308684       0.85252940
C        5.64006850       2.49695872       1.93302659
C        6.06000139       2.83835496       0.55813161
H        3.18313749      -0.91037207      -0.45283232
H        2.12501592       2.01450737       0.05191083
H        4.82817784       0.52066319       0.35044949
H        5.86917313       1.49294302       2.30123158
H        5.55808392       3.27110490       2.69733447
H        6.29576624       3.86958764       0.29114718
H        6.58091049       2.07080698      -0.02157659
