14
Properties=species:S:1:pos:R:3 -1497.2939691813558=T 9.799691=T 10.62186=T -9.1368=T -7.1464=T -10.43=T 0.802=T -0.1202=T 0.553=T 9.66475=T 0.13098=T 4.2871135164=T 12.143250833=T 0.15741672=T pbc="F F F"
O        1.11703528      -0.10275141       0.01271055
C        2.32983676      -0.01578200       0.09047175
N        3.26423386      -1.04842373       0.26540726
C        4.55962989      -0.34979327       0.03995257
C        4.24145522       0.63215630      -1.12835351
C        3.25577533       1.20751601      -0.04437083
C        4.37369712       0.85916211       0.99254337
H        3.07385213      -1.94845822      -0.17123872
H        5.42949364      -1.01499813       0.06839686
H        3.80848117       0.21155145      -2.04711003
H        5.06220961       1.32520177      -1.35938686
H        2.76503444       2.18209317      -0.11848158
H        5.21053945       1.56849739       0.95278478
H        4.07426609       0.64184854       2.02626439
