18
Properties=species:S:1:pos:R:3 -1798.035213462166=T 12.252528=T 12.96675=T -8.9988=T -6.9015=T -9.407=T 1.098=T -0.0323=T 1.389=T 8.8644=T -0.79022=T 6.5947905428=T 0.390397418=T pbc="F F F"
N        0.76747791       0.37500436       0.37777049
C        2.16430738       0.04574738       0.09253015
C        3.20004863       0.97005611       0.82285483
C        4.09794359      -0.27008799       1.06193733
C        2.86537897      -1.16998711       0.79326558
C        2.35078285       0.11977887      -1.40204746
C        2.91281146      -0.79182592      -2.20322277
H        0.59135235       0.30367079       1.38339399
H        0.14629059      -0.29627473      -0.08291315
H        2.76688835       1.34907003       1.76139516
H        3.60761903       1.81603570       0.25219016
H        4.85993947      -0.37748416       0.27824825
H        4.58258712      -0.35599109       2.04309400
H        3.00421472      -2.09913629       0.22228174
H        2.33460991      -1.41309370       1.72609004
H        1.96792944       1.05244674      -1.83280813
H        3.30381010      -1.74005474      -1.82875996
H        3.00193813      -0.61531426      -3.27601026
