12
Properties=species:S:1:pos:R:3 -1289.2638722588838=T 9.547172=T 10.2674=T -9.8332=T -7.717=T -10.277=T 0.544=T -0.7229=T 0.078=T 10.24755=T 0.57202=T 4.2637049596=T 11.1406752398=T 0.235198184=T pbc="F F F"
N        1.08249167       0.30955702      -0.28857943
C        2.53757712       0.08886122      -0.09786592
C        3.10121853      -0.94690924      -0.95339737
C        3.50831561      -1.80974392      -1.70246463
C        3.29125208       1.45656984      -0.25806777
O        2.44179075       2.49910020      -0.28801029
O        4.49555522       1.54872197      -0.29480586
H        0.53869969      -0.27712029       0.34661256
H        0.81831056       0.04189428      -1.24042067
H        2.70507687      -0.18350594       0.95824831
H        3.89051187      -2.56675091      -2.35674592
H        1.53649003       2.06653575      -0.24595302
