14
Properties=species:S:1:pos:R:3 -1423.9946892838238=T 10.973217=T 11.60862=T -9.3547=T -7.4304=T -9.892=T 0.3122=T -1.4491=T -0.506=T 9.18755=T 0.90822=T 4.2129698884=T 5.2769805446=T 0.152543457=T pbc="F F F"
C        1.07187192      -0.29842471      -0.39275966
N        2.29301707       0.10238763       0.31356769
C        2.96984597       1.29269590       0.03242443
N        2.53914889       2.48399457      -0.18442055
C        1.12678414       2.79947086      -0.06504775
C        4.41693013       1.12747859       0.03877122
N        5.56880898       0.93657216       0.05672121
H        0.84365821      -1.33170810      -0.10677052
H        1.18920911      -0.25645001      -1.48812346
H        0.21657699       0.32311858      -0.10573766
H        2.93456835      -0.67250474       0.46930200
H        1.02405192       3.88897346       0.02360002
H        0.66206574       2.33128615       0.82013736
H        0.55465258       2.49073965      -0.95611432
