14
Properties=species:S:1:pos:R:3 -1424.5554824926476=T 10.345417=T 11.88445=T -9.5419=T -7.2062=T -9.372=T 0.8791=T -0.115=T 2.296=T 8.95414=T -1.87723=T 4.1518323918=T 10.1660832868=T 0.663841334=T pbc="F F F"
C        0.96665785       0.00914053      -0.01194537
C        2.42244089      -0.00926876       0.00039884
C        3.63830813      -0.04293480       0.00747881
C        5.09622695      -0.02570319       0.01752534
C        5.66555195       1.40710651       0.02523319
O        7.09380381       1.42669466      -0.01494887
H        0.58175350       1.03996010      -0.00409850
H        0.55385872      -0.50775136       0.86740941
H        0.56978892      -0.48820200      -0.90968013
H        5.49539304      -0.55580858      -0.86287815
H        5.46878385      -0.56748016       0.90547235
H        5.27553423       1.95620263       0.90031423
H        5.33256396       1.93871814      -0.87711669
H        7.42323420       1.09470627       0.83854554
