14
Properties=species:S:1:pos:R:3 -1467.9001878732577=T 11.276108=T 12.22679=T -9.7269=T -7.4738=T -9.549=T 1.5505=T -0.0725=T 1.22=T 9.07417=T -0.6569=T 4.3672084724=T 10.6243851372=T 0.616644191=T pbc="F F F"
C        1.54978117      -0.54614378       1.10428063
C        2.32485572      -0.10640710       0.10676685
C        3.06707819       1.19712564       0.10353104
C        4.59946228       0.99087221       0.00315094
C        5.34214593       2.24389881      -0.03427064
C        5.93508579       3.30320340      -0.06227562
H        1.03726916      -1.50747779       1.04853415
H        1.39827335       0.04641631       2.01038037
H        2.45081051      -0.73371898      -0.78423644
H        2.83573097       1.77151306       1.01309091
H        2.74767919       1.81042934      -0.75565312
H        4.83240421       0.40209514      -0.90026790
H        4.93911655       0.38708045       0.86070778
H        6.46557697       4.23291332      -0.08851896
