13
Properties=species:S:1:pos:R:3 -1388.9778856814012=T 9.862412=T 10.90298=T -9.98=T -8.0081=T -10.989=T 0.632=T -0.5511=T 0.156=T 9.95611=T 0.50476=T 4.3177752542=T 12.3532087254=T 0.482118272=T pbc="F F F"
C        1.08168710      -0.12648324       0.17311708
C        2.49567191      -0.10772907      -0.37014891
O        2.79853532      -0.60277878      -1.45296802
N        3.43255565       0.49453658       0.44786391
C        4.81262209       0.62811404       0.01564600
C        5.25155498       2.02540485      -0.03893518
N        5.60247909       3.13760973      -0.04733812
H        0.97400185       0.35677204       1.15232754
H        0.74967760      -1.17018876       0.24748464
H        0.42630603       0.37516242      -0.55068573
H        3.13980256       0.94349601       1.31013854
H        4.85789603       0.18068975      -0.99105275
H        5.50138981       0.06734445       0.66823101
