17
Properties=species:S:1:pos:R:3 -1601.2137176216565=T 11.88434=T 12.55063=T -7.8595=T -5.9376=T -9.487=T 0.8717=T -0.0805=T 0.773=T 8.83644=T -0.18232=T 5.6541087608=T 5.7896626546=T 0.140489154=T pbc="F F F"
C        0.97433876       0.92325617       0.84307246
C        2.47824006       0.81231707       0.67774116
O        2.97642704       2.12967198       0.40831064
N        4.39199421       2.04325924       0.23665818
C        4.85968798       3.21491357      -0.04263648
N        6.21363221       3.44017555      -0.15874147
C        7.13090834       2.30909462      -0.18684591
H        0.55047175      -0.06791402       1.05610226
H        0.50480966       1.30969649      -0.07236780
H        0.71770416       1.59424976       1.67469228
H        2.74178276       0.14041868      -0.15844007
H        2.95595867       0.41960357       1.59288924
H        4.21356289       4.09430347      -0.15528604
H        6.45824922       4.22809636      -0.75090939
H        7.03589560       1.74388236       0.75013624
H        8.15678590       2.68556636      -0.27368300
H        6.92023080       1.61318878      -1.01741229
