15
Properties=species:S:1:pos:R:3 -1530.5293947931805=T 10.086501=T 10.81442=T -8.9361=T -6.8166=T -10.093=T 0.9903=T 0.0355=T 2.864=T 9.87665=T -2.52953=T 7.8964451652=T 11.8723910174=T 0.284845824=T pbc="F F F"
C       -1.32067606       0.66348050      -0.00990118
C       -1.06545306      -0.83928392      -0.13112185
N       -0.24789418      -1.54835360       0.87330232
C        0.40239022      -1.04961709      -0.35175033
C        1.08227230       0.31471524      -0.36272840
N        1.09676914       1.14992646       0.85159324
C        0.03194557       1.36282838      -0.14888064
H       -1.97148405       0.98110572      -0.84038526
H       -1.84696845       0.93325903       0.92121537
H       -1.83313572      -1.46127749      -0.60005929
H       -0.04393677      -0.95148856       1.68383651
H        0.81126932      -1.82308277      -1.00518951
H        1.94180138       0.44550209      -1.02342936
H        0.74814939       0.63813989       1.67095082
H        0.06332098       2.34412611      -0.63074244
