14
Properties=species:S:1:pos:R:3 -1316.151079490824=T 10.709827=T 11.75757=T -9.3583=T -7.3969=T -10.184=T 0.7482=T -0.2453=T -0.046=T 9.837=T 0.35438=T 5.0120596584=T 10.288234294=T 0.078224599=T pbc="F F F"
C        1.01426242      -0.03255477       0.62169361
N        2.33727036       0.02703557      -0.02295955
C        3.17353472       1.13911248       0.43452330
S        4.11370224      -0.02515653       1.58025592
O        3.44708629      -0.10812999       2.89368557
O        5.57983463       0.00843259       1.47069829
C        3.21586326      -1.09514846       0.31492661
H        0.47779837      -0.90958655       0.23750414
H        0.44411186       0.85948305       0.33220754
H        1.06487525      -0.09066826       1.72393529
H        2.63931510       1.96547569       0.91785252
H        3.88078663       1.49164630      -0.32887563
H        3.93433905      -1.33710758      -0.48032620
H        2.71427981      -1.98800356       0.70600858
