19
Properties=species:S:1:pos:R:3 -1885.392942271417=T 11.464084=T 12.85693=T -9.2937=T -7.0646=T -11.366=T 0.9033=T -0.003=T 2.887=T 10.65843=T -2.59598=T 9.1897307326=T 10.8318137152=T 0.172685117=T pbc="F F F"
C        2.05331137      -0.39159741      -1.48504109
C        2.41274600       0.07166757      -0.07136894
C        3.14196584       1.41583495      -0.02153118
C        2.32825554       2.63989891      -0.47596157
C        3.09740756       3.79441045       0.16498273
O        3.66427741       3.28024254       1.38871599
C        3.54502709       1.84616224       1.39504463
H        1.56576778      -1.37673139      -1.46685154
H        2.95116233      -0.47608852      -2.11658361
H        1.36380165       0.30969427      -1.97793688
H        3.04397434      -0.69405647       0.41124359
H        1.49676809       0.14474083       0.54147961
H        4.05426085       1.35289620      -0.64325478
H        1.30525324       2.57981741      -0.06742795
H        2.25694713       2.73962277      -1.56771391
H        3.91412124       4.14447883      -0.49408868
H        2.46047327       4.65784879       0.41286047
H        4.50664931       1.41491429       1.71670421
H        2.76821997       1.54446373       2.12563891
