19
Properties=species:S:1:pos:R:3 -1798.3955220873033=T 12.686639=T 13.13925=T -7.8855=T -6.0219=T -8.562=T 0.9388=T -0.0616=T 0.803=T 7.84766=T -0.2442=T 4.6106425848=T 5.0244830556=T 0.294139878=T pbc="F F F"
C        1.48500173      -0.78838505       0.98134119
C        2.42442160      -0.27548229      -0.10904610
C        3.22433224      -1.41275771      -0.75997336
N        1.67900287       0.52562237      -1.10769107
C        2.41768750       1.50466839      -1.88796318
N        0.62933078      -0.11968027      -1.65767357
C        0.10710272       0.28057296      -2.77257695
H        0.94950039       0.04405167       1.45790798
H        2.06233528      -1.32096020       1.74999016
H        0.74222082      -1.47664159       0.55807721
H        3.13025121       0.43624326       0.35049383
H        2.53970376      -2.12880403      -1.23775179
H        3.81705751      -1.95032150      -0.00540444
H        3.91700046      -1.03339138      -1.52537634
H        3.27269414       1.85835979      -1.30046460
H        1.77738510       2.37073232      -2.11867087
H        2.78442166       1.08870474      -2.84740614
H       -0.76976025      -0.26760076      -3.11901333
H        0.46211047       1.12847927      -3.37092862
