16
Properties=species:S:1:pos:R:3 -1630.9948871031215=T 10.901018=T 12.1682=T -9.3877=T -7.3321=T -10.491=T 1.003=T -0.1117=T 0.367=T 9.92389=T 0.2127=T 4.3232554354=T 6.2001803006=T 0.210637386=T pbc="F F F"
C        0.88873368       0.04278895      -0.18285511
C        2.38101639      -0.08791576       0.01443560
C        3.23503638      -0.84207744      -0.97560318
C        3.34045469       0.66420641      -0.88414251
N        4.53697378       1.23476003      -0.32711421
C        4.54681920       2.23174591       0.61303123
O        5.54904405       2.82353889       0.99496556
H        0.48896312       0.91756353       0.35177893
H        0.36388789      -0.84934366       0.18989052
H        0.63549459       0.15515364      -1.24741681
H        2.71060403      -0.17048650       1.05311347
H        2.75618483      -1.25600584      -1.86400585
H        4.07246739      -1.42196580      -0.58652021
H        2.88608321       1.22940332      -1.70586644
H        5.42973172       1.05138702      -0.78595771
H        3.52580507       2.43581730       1.01193670
