14
Properties=species:S:1:pos:R:3 -1401.9057754362939=T 9.504856=T 10.06221=T -9.4759=T -7.4263=T -10.639=T 1.1124=T -0.5691=T 0.276=T 10.15693=T 0.32036=T 5.1480599018=T 6.570452091=T 0.207639351=T pbc="F F F"
C        1.02258032       0.17038855      -0.01729368
C        2.53493870      -0.01716813       0.11932286
O        3.25896939       1.18502897      -0.20662059
C        3.67062868       1.13648958      -1.55314074
O        4.59361941       0.07960476      -1.81117860
N        4.06036701      -1.19042185      -1.49321208
C        3.07966994      -1.18558070      -0.65690011
H        0.69543116       1.00044165       0.62222530
H        0.48974147      -0.74019385       0.29221456
H        0.74385428       0.39185998      -1.05669622
H        2.77674193      -0.21097426       1.18005226
H        4.20714062       2.06587897      -1.77555854
H        2.80117210       0.99673801      -2.22580721
H        2.67443500      -2.17999168      -0.44373722
