16
Properties=species:S:1:pos:R:3 -1604.117167218967=T 10.325133=T 11.25183=T -8.5432=T -6.4358=T -9.731=T 1.0291=T 0.1124=T 3.155=T 9.08473=T -2.87469=T 7.7295600092=T 12.4513064486=T 0.130196271=T pbc="F F F"
C       -1.67299077       0.82476985       0.53023991
C       -1.13000391      -0.23896255      -0.39605789
N       -0.40308252      -1.36817163       0.14445747
C        1.00089324      -1.34656562      -0.29626295
C        1.66518942       0.06462556      -0.18584939
O        0.79071242       1.00739972       0.46100676
C       -0.42164064       1.09721766      -0.25281970
H       -2.58528561       1.34062559       0.22910842
H       -1.55797290       0.67729737       1.60557648
H       -1.68699854      -0.44335264      -1.31621929
H       -0.43602241      -1.33663627       1.16409540
H        1.55499648      -2.08106248       0.30498038
H        1.03970927      -1.69465809      -1.34111065
H        2.57156585       0.03562439       0.43384052
H        1.94502813       0.44749617      -1.18471332
H       -0.42729752       1.83087298      -1.06834216
