18
Properties=species:S:1:pos:R:3 -1813.8442630188638=T 12.380104=T 13.34291=T -8.5374=T -6.3715=T -8.672=T 0.917=T -0.0058=T 1.523=T 8.10746=T -0.81764=T 6.008423553=T 0.374677772=T pbc="F F F"
C        1.04177416      -0.15849772       0.42077405
C        2.36982354       0.06469393      -0.23880655
C        3.05395295       1.21691871      -0.26450589
C        2.66277673       2.54218607       0.37050622
C        3.69688967       3.52545387      -0.20123226
N        4.88760994       2.67579548      -0.35260076
C        4.39263383       1.42498591      -0.95303430
H        1.10945385      -0.94268355       1.19288445
H        0.28767226      -0.50376497      -0.30575294
H        0.65690912       0.75103757       0.90092901
H        2.81011729      -0.80631646      -0.73824143
H        2.76358881       2.48209791       1.46673947
H        1.62929095       2.84089348       0.14395659
H        3.32391614       3.93137294      -1.16703483
H        3.90577929       4.37271902       0.46802135
H        5.59829582       3.11962595      -0.93670613
H        4.23111829       1.50636467      -2.05157923
H        5.09606734       0.59701720      -0.77665681
