14
Properties=species:S:1:pos:R:3 -1416.4840059416927=T 9.341738=T 10.11831=T -8.8171=T -6.7737=T -10.311=T 0.8902=T -0.0523=T 0.277=T 9.93791=T 0.24177=T 5.8955838944=T 12.457617336=T 0.208642331=T pbc="F F F"
C        0.84469188       0.01645343      -0.02925916
C        2.36440490       0.00081248      -0.04449091
C        3.01481049      -0.03460560       1.32713282
O        2.82753964      -1.15014547      -0.83269318
C        3.43731145      -0.59840107      -1.91249272
N        3.50147311       0.68071704      -1.97858391
O        2.86311602       1.15484287      -0.79478882
H        0.46098446       0.03729268      -1.05683428
H        0.49098140       0.91235967       0.49735542
H        0.45616695      -0.87310588       0.48422821
H        4.10644860      -0.05562415       1.22242326
H        2.68651306      -0.92189755       1.88459510
H        2.73090400       0.86245716       1.89253703
H        3.84592403      -1.26633560      -2.66567885
