15
Properties=species:S:1:pos:R:3 -1705.152883663078=T 12.360069=T 12.41958=T -8.7604=T -6.9412=T -8.748=T 1.0952=T -0.308=T 0.724=T 8.5312=T -0.14059=T 4.5863537274=T 6.0796783072=T 0.74314892=T pbc="F F F"
C        0.96987084       0.01263711       0.05970808
C        2.47549373       0.03744755      -0.02856818
C        3.18092677       1.24856958      -0.08022640
C        4.57667423       1.26753843      -0.17321726
C        5.29350007       0.06932728      -0.21493275
C        4.60335288      -1.14685409      -0.16239567
C        3.21016070      -1.16005453      -0.07028376
H        0.55944077       1.02197039       0.19599609
H        0.62918041      -0.60892390       0.90100602
H        0.52608454      -0.40901486      -0.85540286
H        2.62827630       2.19085771      -0.04625019
H        5.10435034       2.22244968      -0.21304140
H        6.38238886       0.08105606      -0.28618281
H        5.15348399      -2.08948204      -0.19056738
H        2.67984557      -2.11509437      -0.02903153
