19
Properties=species:S:1:pos:R:3 -1876.816093986774=T 12.180057=T 13.4469=T -9.5302=T -7.35=T -9.427=T 1.1138=T -0.1702=T 1.251=T 8.79679=T -0.61121=T 6.450929587=T 0.381438959=T pbc="F F F"
C        1.16902818      -0.10989262      -0.46060453
C        2.53549333      -0.29170627       0.20257270
C        3.36956641       0.99263293       0.19600592
O        2.69217087       2.06569622       0.89764828
C        4.79398704       0.87030302       0.71979097
C        5.66627179       2.07038077       0.45988432
C        5.23950251      -0.20523241       1.38834189
H        0.57686650      -1.03407686      -0.40587437
H        1.27758199       0.15493214      -1.52368014
H        0.60035661       0.69385826       0.02650165
H        3.10320040      -1.08177612      -0.31543887
H        2.40207795      -0.63180069       1.24453603
H        3.42192514       1.36323537      -0.84458298
H        2.72919677       1.83890242       1.84579964
H        5.83750420       2.19481886      -0.62238699
H        6.64207910       1.97779399       0.95388307
H        5.17497610       2.99118951       0.80725383
H        4.61700197      -1.08236222       1.56759065
H        6.26016313      -0.24095629       1.77510892
