17
Properties=species:S:1:pos:R:3 -1713.6709304802002=T 12.489575=T 14.61013=T -9.3992=T -7.1079=T -9.23=T 0.909=T 0.0019=T 2.473=T 9.02107=T -1.999=T 4.187317185=T 12.6290775754=T 0.493266699=T pbc="F F F"
C        0.92614970       0.06061297      -0.12724367
C        2.44040171       0.01145690      -0.06225865
O        2.93922764       1.34988641      -0.06210510
C        4.36876659       1.36690450       0.00036131
C        4.86381596       2.73479214       0.00040073
C        5.30869316       3.86549226       0.00139615
C        5.82383987       5.22553003       0.00217269
H        0.51482627      -0.95836227      -0.12874214
H        0.59389631       0.57157226      -1.04117640
H        0.51848714       0.59942089       0.73892347
H        2.85267132      -0.54362656      -0.93001014
H        2.77695914      -0.51555805       0.85427540
H        4.79176275       0.81372480      -0.86449375
H        4.71345689       0.84196462       0.91607360
H        5.03540867       5.93926139      -0.27958554
H        6.64910919       5.33907075      -0.71644318
H        6.19736770       5.51276696       0.99630526
