11
Properties=species:S:1:pos:R:3 -1177.9661412763128=T 10.822313=T 11.00767=T -8.9131=T -7.0158=T -8.511=T 0.7678=T -0.873=T -0.063=T 8.06038=T 0.74557=T 4.2000133514=T 10.5279984208=T 0.308527142=T pbc="F F F"
C        0.86484422       0.08874107      -0.00822071
C        2.35869520       0.01944929      -0.00034733
C        3.27049717       1.04944777       0.00434312
N        4.60276343       0.70769004       0.01086044
C        4.73835170      -0.59188644       0.01110036
S        3.23596851      -1.49040197       0.00369453
H        0.54561868       1.13934011      -0.00203719
H        0.42692351      -0.40197693       0.87317056
H        0.43710018      -0.38844408      -0.90202103
H        2.99159523       2.10371300       0.00331091
H        5.69276216      -1.11578186       0.01587634
