13
Properties=species:S:1:pos:R:3 -1289.6010602779797=T 8.192869=T 8.83623=T -9.5794=T -7.3598=T -10.857=T 1.1545=T -0.8426=T 0.069=T 9.98882=T 0.54587=T 3.7182657484=T 8.3733697128=T 0.166694566=T pbc="F F F"
C        0.96406888      -0.00590414      -0.02916457
C        2.50091285       0.00302789       0.01445438
C        3.10210250      -0.75698186      -1.17914722
C        2.98818604       1.43688836      -0.01564578
O        3.64413488       1.98277187       0.85109635
H        0.53298841       0.49975120       0.84604354
H        0.59121901      -1.03996148      -0.04531138
H        0.59038378       0.49755618      -0.93471495
H        2.85355091      -0.43922743       0.95908272
H        2.81814258      -0.28519294      -2.13304416
H        2.73080286      -1.79158365      -1.19592911
H        4.19926586      -0.78797231      -1.12607563
H        2.68831143       1.99907829      -0.94376419
