19
Properties=species:S:1:pos:R:3 -1810.3488337642434=T 12.774976=T 13.36599=T -8.5841=T -6.5411=T -9.191=T 1.0142=T -0.1155=T 0.886=T 8.73318=T -0.26309=T 4.9471405888=T 5.7018929652=T 0.18388392=T pbc="F F F"
C        0.94753224      -0.10129428      -0.03450230
C        2.48778604      -0.01649715       0.04439400
C        2.98764712      -0.71439496       1.31606114
C        3.09462116      -0.69798417      -1.20291365
C        2.88184938       1.44504778       0.01905727
N        3.58047776       1.99711158       0.94181432
N        3.96078434       3.31284893       0.77078612
H        0.56351452       0.41550769      -0.92772818
H        0.48268930       0.35624823       0.85110072
H        0.62330481      -1.15178148      -0.08901707
H        2.56877864      -0.24421667       2.21644738
H        4.08181995      -0.65794148       1.39373826
H        2.69004628      -1.77356717       1.30339304
H        2.76554987      -0.20320366      -2.12971873
H        2.78049097      -1.75190857      -1.25403311
H        4.19329840      -0.66667186      -1.17108238
H        2.53984055       2.02475455      -0.86319804
H        4.08550518       3.75470112       1.67980449
H        3.33452347       3.86585157       0.17032675
