20
Properties=species:S:1:pos:R:3 -1894.783984894913=T 11.664241=T 12.76756=T -9.5326=T -7.336=T -10.667=T 0.7665=T -0.1951=T 2.672=T 9.96339=T -2.34514=T 8.3057353498=T 11.9940832764=T 0.088395041=T pbc="F F F"
C        2.79549228      -0.98419473      -1.03024001
C        2.47253622       0.05383852       0.05075133
C        3.05380189       1.47229640      -0.15210902
C        2.49571195       2.14244299      -1.41314023
N        2.73816688       2.35857452       0.99991848
C        4.60290950       1.43366194      -0.20716012
O        5.15663866       2.73995132      -0.15041505
H        2.33157268      -1.94962848      -0.78286373
H        3.87675745      -1.15782092      -1.12633333
H        2.41344263      -0.68217610      -2.01586800
H        2.83573971      -0.32142444       1.02453580
H        1.37705597       0.15025780       0.14776467
H        2.74334513       1.56215221      -2.31183242
H        2.92613602       3.14563813      -1.53134145
H        1.39904797       2.23128696      -1.35841198
H        2.81880750       1.83338329       1.87604844
H        1.77014240       2.68395563       0.94279450
H        4.94816752       0.96757810      -1.14208923
H        4.97061477       0.80928090       0.63582901
H        4.55314287       3.20905597       0.47108233
