12
Properties=species:S:1:pos:R:3 -1287.0606642071918=T 12.133683=T 12.19476=T -8.3182=T -6.6022=T -9.325=T 0.3951=T -1.1342=T -0.66=T 8.69281=T 1.38117=T 3.8349365744=T 4.3728870312=T 0.271487422=T pbc="F F F"
C        0.97679966      -0.00200216       0.01130301
C        2.47254594       0.01040322       0.05271680
C        3.28987659       1.10891494       0.00307054
C        4.70433567       0.83868676      -0.02548138
O        5.67782863       1.56517831      -0.06876870
S        4.85236501      -1.03963178       0.06109995
N        3.12796691      -1.18859122       0.17993997
H        0.58792721       1.02056349      -0.04468901
H        0.56246735      -0.48493110       0.90797754
H        0.61035131      -0.55396774      -0.86802553
H        2.93088382       2.13465348      -0.01774768
H        2.71363191      -2.03802620      -0.19946552
