17
Properties=species:S:1:pos:R:3 -1657.2732613631256=T 12.065676=T 13.1371=T -9.1654=T -6.8934=T -9.742=T 0.8914=T -0.0783=T 2.347=T 9.318=T -1.91339=T 4.338146154=T 10.636077017=T 0.614751228=T pbc="F F F"
N        0.98978433      -0.03943674      -0.22039536
C        2.45200835      -0.03150824      -0.08294063
C        2.97944956       1.41951713       0.03019655
C        2.45205177       2.12892835       1.29519398
N        2.78265735       3.55676641       1.26017590
C        4.44023453       1.43901397      -0.01276517
C        5.65536614       1.44412993      -0.01526164
H        0.63361517      -0.98915649      -0.09976174
H        0.72535777       0.24877016      -1.16608872
H        2.99192367      -0.53071802      -0.90920990
H        2.71349628      -0.57120558       0.84114658
H        2.60846878       1.99504521      -0.83893717
H        2.84681222       1.58563548       2.17865830
H        1.35873991       2.01620847       1.29603129
H        3.79645146       3.67609426       1.34419782
H        2.36715624       4.02892767       2.06546551
H        6.72606648       1.45344802      -0.02916559
