18
Properties=species:S:1:pos:R:3 -1721.1978845144774=T 12.202358=T 13.36683=T -9.3955=T -7.3122=T -10.797=T 1.4538=T -0.4586=T 0.346=T 10.36701=T 0.16792=T 5.325260693=T 6.5897195154=T 0.49575264=T pbc="F F F"
C        1.29822443      -1.29630853      -1.50125471
C        2.47765084      -0.98778360      -0.57715036
C        2.94973232       0.46580917      -0.68477619
C        4.12029868       0.76108190       0.23741572
O        4.47665264       2.14895453       0.05663325
N        5.55019308       2.46299220       0.90277239
C        5.89856194       3.69039431       0.77903021
H        0.97781428      -2.34345432      -1.40598269
H        1.56277775      -1.12178209      -2.55524826
H        0.43228858      -0.65866830      -1.26684324
H        3.31682242      -1.66426569      -0.81306432
H        2.19367317      -1.20447913       0.46683094
H        2.11829701       1.14779910      -0.44043619
H        3.24509461       0.68688285      -1.72401550
H        4.99216174       0.12989214      -0.00409004
H        3.85236882       0.59214202       1.29398349
H        6.72964813       4.01731158       1.40391493
H        5.40637957       4.38881185       0.09206057
