15
Properties=species:S:1:pos:R:3 -1523.142145384649=T 11.445526=T 12.03165=T -9.2208=T -7.3233=T -9.923=T 0.9454=T -0.7578=T -0.054=T 9.9022=T 0.64923=T 4.2376183052=T 5.6772941428=T 0.318158751=T pbc="F F F"
C        0.74733932       0.19119470       0.17277985
N        2.18408173       0.17559174      -0.03120139
C        2.79443491       1.29274557       0.04748840
N        4.17338593       1.35172058      -0.13590948
C        4.91510328       2.52775781      -0.06239901
C        6.40740014       2.35422990      -0.26672621
O        4.39773551       3.61617280       0.16189748
H        0.24870178      -0.22018349      -0.71847348
H        0.33214611       1.19586881       0.37838919
H        0.49213390      -0.47342177       1.01275883
H        2.34073621       2.27447870       0.25440681
H        4.63601045       0.46455511      -0.32681272
H        6.69904412       1.34576447      -0.58616864
H        6.91804528       2.59062614       0.67692084
H        6.74451133       3.08502894      -1.01232048
