14
Properties=species:S:1:pos:R:3 -1476.971134123106=T 12.706986=T 13.31326=T -8.8845=T -7.0739=T -8.892=T 0.5509=T -0.9624=T -0.254=T 8.19548=T 0.88564=T 4.4348304368=T 10.0543719008=T 0.588688887=T pbc="F F F"
C        0.87146165      -0.02935717      -0.00333851
C        2.36843791      -0.00620491      -0.00431388
C        3.22234444       1.08680297      -0.00151671
C        2.80101363       2.53072389       0.00381865
C        4.57850269       0.64618803      -0.00463048
N        4.81741533      -0.65920656      -0.00898432
S        3.33456510      -1.44782145      -0.01037630
H        0.47146387       0.99274504       0.00953455
H        0.47466057      -0.55579382       0.87705413
H        0.47336885      -0.53379407      -0.89602604
H        3.68022732       3.18816607       0.00947320
H        2.19849323       2.77784877       0.89061090
H        2.20376660       2.78600171      -0.88424390
H        5.43723882       1.32293152      -0.00303129
