16
Properties=species:S:1:pos:R:3 -1535.2597524882672=T 10.4909=T 11.30087=T -8.6245=T -6.6768=T -9.571=T 0.7453=T -0.1887=T 1.141=T 8.77223=T -0.53797=T 5.0289589502=T 12.5946342646=T 0.220827615=T pbc="F F F"
C        1.89529987      -0.09431264      -0.43631040
C        3.17256821      -0.27760933       0.37464461
N        4.07770637       0.84561856       0.17801269
C        5.33091131       0.90226013       0.76907938
C        6.18489175       2.05311965       0.29203779
N        5.79016058       0.10869218       1.67935709
H        1.20757900      -0.93214441      -0.26120857
H        2.10925621      -0.06096179      -1.51548822
H        1.37957504       0.83525606      -0.15595380
H        3.66356137      -1.23103921       0.09842887
H        2.92195269      -0.34559276       1.44709930
H        3.95667837       1.37129812      -0.68380822
H        5.69603199       3.01686944       0.49889254
H        6.36319999       1.99251117      -0.79298912
H        7.14724523       2.01954576       0.81220823
H        5.11192202      -0.63101095       1.90622785
