12
Properties=species:S:1:pos:R:3 -1391.0558887765008=T 10.396343=T 10.15317=T -8.9248=T -7.0325=T -9.026=T 0.5403=T -0.9611=T 0.08=T 8.55126=T 0.46559=T 4.5139707006=T 6.5475394782=T 0.56209784=T pbc="F F F"
O        1.04304447      -0.10352604       0.17226487
C        2.39937087       0.01461910       0.03679690
C        3.03437295       1.26781596      -0.05236918
C        4.41938233       1.28843283      -0.18934047
C        5.11901782       0.07758063      -0.23229936
C        4.38251351      -1.10354861      -0.13407658
N        3.04681371      -1.14924738      -0.00167180
H        0.65562631       0.78990165       0.18962412
H        2.45952165       2.19599199      -0.01532489
H        4.94608805       2.24133021      -0.26171151
H        6.20314644       0.04896120      -0.33872916
H        4.88737188      -2.07415155      -0.16266294
