17
Properties=species:S:1:pos:R:3 -1670.6643806809254=T 11.036782=T 11.75602=T -8.4482=T -6.3071=T -9.577=T 0.8492=T -0.0785=T 3.301=T 9.16424=T -3.07713=T 7.7578536144=T 11.4729701184=T 0.22842133=T pbc="F F F"
C        0.71245907      -0.00213874      -0.15599396
N        2.14388404       0.03031551       0.15028755
C        3.11276263      -0.81618633      -0.54864237
C        2.77687389      -1.43450038      -1.89541848
N        2.23226043      -0.32418566      -2.69887075
C        2.78611023       0.94485849      -2.19112427
C        3.11854263       0.67249795      -0.73367970
H        0.26613027       0.93772187       0.20090563
H        0.25883877      -0.82111461       0.42142860
H        0.47272650      -0.13508302      -1.22458116
H        3.83038837      -1.34286746       0.08730240
H        3.71011326      -1.87560438      -2.30286070
H        2.03273950      -2.24726719      -1.82185860
H        2.40311355      -0.44874669      -3.69583381
H        3.72242292       1.26555573      -2.69330885
H        2.04830672       1.75673632      -2.31955965
H        3.84074720       1.33334858      -0.24530187
