15
Properties=species:S:1:pos:R:3 -1434.4642017473602=T 10.101259=T 10.71044=T -9.5363=T -7.4037=T -10.556=T 1.5444=T -0.161=T 0.548=T 10.04026=T 0.06226=T 5.5540892546=T 6.6204308476=T 0.216136266=T pbc="F F F"
C        0.92687613      -0.07096495      -0.05409075
C        2.46077169       0.03296510      -0.00202228
C        3.11175212      -0.74202879      -1.16046625
C        2.88737761       1.47261556      -0.03256280
N        3.53854832       1.97344863       0.95035460
O        3.84114106       3.34394614       0.71728890
H        0.46328864       0.44976794       0.79502163
H        0.61252696      -1.12447225      -0.02543487
H        0.53173440       0.37124428      -0.98209928
H        2.81512646      -0.38765929       0.95283681
H        2.80692733      -0.32766939      -2.13426023
H        2.80541803      -1.79798431      -1.13572238
H        4.20804253      -0.70023357      -1.10131007
H        2.63131506       2.08613593      -0.91097330
H        4.32439367       3.57948897       1.52951026
