20
Properties=species:S:1:pos:R:3 -1950.7394903161462=T 12.061084=T 13.10179=T -7.8499=T -5.8553=T -9.282=T 0.9221=T 0.0075=T 3.157=T 8.50514=T -2.93802=T 7.3115040144=T 13.2361626258=T 0.12389714=T pbc="F F F"
C        0.98401587       0.03832632       0.15275542
N        2.42886499       0.00605218      -0.04910352
C        2.92453302      -1.28206857      -0.55148124
C        2.62897096      -1.54157158      -2.03952004
C        3.16067443      -0.38557789      -2.89892605
C        2.63705157       0.96191837      -2.38161983
C        2.93217449       1.10905885      -0.87816304
H        0.70631629       0.99855256       0.61325488
H        0.70038858      -0.76183085       0.85311233
H        0.36740891      -0.08431875      -0.76292638
H        2.50662552      -2.08398468       0.07760251
H        4.01970834      -1.29291860      -0.40022657
H        3.08620681      -2.49630016      -2.34611276
H        1.54163598      -1.65019242      -2.19303901
H        4.26554396      -0.38295606      -2.85334256
H        2.89057493      -0.52931460      -3.95695275
H        3.10034369       1.79645829      -2.93252783
H        1.55034267       1.03245586      -2.55975769
H        4.02754628       1.15307072      -0.73446386
H        2.52003271       2.05298101      -0.48752202
