18
Properties=species:S:1:pos:R:3 -1700.6037871039284=T 10.677957=T 11.76693=T -9.19=T -6.9864=T -10.581=T 0.8474=T -0.235=T 2.703=T 9.8855=T -2.41577=T 8.3579210572=T 10.8239282056=T 0.088543897=T pbc="F F F"
C        1.06497038      -0.86448112       0.24045946
C        2.44390916      -0.24605657      -0.03744637
N        3.20078327      -0.91039138      -1.11290432
C        2.37797814       1.24819692      -0.38885903
O        1.61227407       1.39742541      -1.59214080
C        1.79232908       2.13278718       0.70909845
O        1.71461775       3.50076792       0.26583655
H        0.57510090      -0.41988623       1.12083811
H        1.17159023      -1.94136816       0.43698409
H        0.40224529      -0.73323188      -0.62639843
H        3.05776491      -0.32143250       0.87927255
H        2.70420269      -0.76030205      -1.99676505
H        3.20683130      -1.92068690      -0.95313110
H        3.42441011       1.57143343      -0.57715763
H        1.40742259       2.34992365      -1.65456485
H        2.38310665       2.04443674       1.63840191
H        0.75344245       1.84443460       0.92336954
H        2.62195105       3.85481093       0.23933691
