11
Properties=species:S:1:pos:R:3 -1218.027309366623=T 9.3718=T 10.40584=T -10.7793=T -8.4142=T -10.304=T 0.8166=T -0.3862=T 1.12=T 9.88775=T -0.80962=T 4.3808717296=T 10.9371894166=T 0.466536362=T pbc="F F F"
C        0.95322974      -0.02121073       0.03492115
C        2.50079582      -0.02174319      -0.01282613
C        3.02185198      -0.78063518      -1.15363790
C        3.42642844      -1.42683386      -2.09517951
C        3.02015551       1.35746433      -0.01571414
N        3.40323240       2.45809115       0.00919096
H        0.60463232       0.53087145       0.91624339
H        0.59276930      -1.05525992       0.08872579
H        0.54586097       0.45060085      -0.86695132
H        2.88039420      -0.49121024       0.91329490
H        3.79120932      -1.99381466      -2.92744718
