16
Properties=species:S:1:pos:R:3 -1636.5752790101358=T 10.436179=T 11.4066=T -8.7199=T -6.6437=T -10.323=T 0.8483=T -0.8443=T 0.278=T 9.61741=T 0.48185=T 3.7274655096=T 12.0455250678=T 0.114483678=T pbc="F F F"
C        0.94659067      -0.01535984       0.02371558
C        2.47070464       0.03683144       0.03062760
C        3.14797469       1.13114308       0.87925791
N        4.49695782       0.63340588       1.23441646
C        4.33565896      -0.81710382       1.41316634
C        3.12147318      -1.24410613       0.57660321
O        2.73390775      -2.38379706       0.39820673
H        0.59870710      -0.92178967      -0.49002784
H        0.51712973       0.85994232      -0.48289139
H        0.55412567      -0.04086091       1.05147261
H        2.84099766       0.12436876      -1.01014427
H        2.57254738       1.28776887       1.80955300
H        3.22313288       2.10178335       0.37180557
H        5.12280787       0.79741876       0.44195045
H        5.23509541      -1.38535069       1.14093590
H        4.11251859      -1.05542433       2.47014214
