10
Properties=species:S:1:pos:R:3 -1078.7180605916055=T 8.082349=T 8.63371=T -10.5432=T -8.2723=T -10.096=T 1.1762=T -0.6323=T 0.672=T 9.59028=T -0.20947=T 5.3660024926=T 6.6714510866=T 0.46307575=T pbc="F F F"
C        0.87709486      -0.14762273      -0.14957327
C        2.16525493       0.03802330       0.14586072
C        2.85839279       1.37987895       0.06895177
C        3.51039845       1.75039878       1.32607994
N        4.03367062       2.03350141       2.32918319
H        0.42388079      -1.13790215      -0.09998997
H        0.23147586       0.68088010      -0.45059524
H        2.79077455      -0.80390159       0.45478758
H        2.14329910       2.17067084      -0.20474906
H        3.63631806       1.36222310      -0.71389566
