15
Properties=species:S:1:pos:R:3 -1557.765226196682=T 10.269527=T 10.89184=T -9.6124=T -7.4137=T -9.539=T 0.903=T -0.5527=T 1.107=T 9.00586=T -0.48983=T 6.3325601528=T 0.328482729=T pbc="F F F"
O        0.97734884       0.06915161      -0.07897136
C        2.41936856      -0.03570072      -0.03455079
C        2.92450511      -1.32083318       0.66380513
C        3.31102283      -0.91436583       2.10920586
O        4.51912327      -1.52500395       2.59141468
C        3.37571823       0.59296262       2.03314278
C        2.92177436       1.06740510       0.86632886
H        0.66450831      -0.51779971      -0.78915006
H        2.81596511       0.06037360      -1.06248973
H        3.82907430      -1.69572168       0.15971438
H        2.17240068      -2.12079755       0.63043496
H        2.54913117      -1.23100055       2.84045849
H        5.24876588      -1.19469594       2.03463533
H        3.74360146       1.19099716       2.86877873
H        2.84031189       2.11891901       0.58854273
