11
Properties=species:S:1:pos:R:3 -1183.6805569529454=T 11.804947=T 11.88286=T -8.3491=T -6.6042=T -9.438=T 0.5844=T -0.9779=T -0.201=T 8.72122=T 0.69633=T 4.4528580012=T 11.388300079=T 0.307699757=T pbc="F F F"
C        2.14367587       0.30644569       0.61771785
N        1.79727277       0.26211960      -0.86497546
C        2.71604543       1.33357851      -1.06364636
N        3.23376722       2.09289144      -2.00347313
S        4.17025532       3.22940955      -1.13230478
C        3.82314893       2.60826471       0.47974590
C        2.99878868       1.53676070       0.30608968
H        2.71413785      -0.56593755       0.96704741
H        1.25573670       0.46373553       1.24446123
H        1.94414942      -0.61517241      -1.36870407
H        4.26387182       3.07250423       1.35868172
