17
Properties=species:S:1:pos:R:3 -1697.6307501977583=T 12.466088=T 13.21548=T -8.8727=T -6.8832=T -9.312=T 1.2091=T -0.1526=T 0.85=T 9.07725=T -0.34233=T 4.8480633762=T 6.1925799588=T 0.35082419=T pbc="F F F"
C        0.79032138       1.43201154      -1.31608852
C        2.26022398       1.21267285      -1.12763355
C        2.98745715       1.68341031      -0.10311218
C        4.46339696       1.45873509       0.08219818
C        5.28586306       2.74979943       0.05870617
N        5.06371805       3.52618995      -1.06394858
N        6.16976403       3.11104264       0.92377287
H        0.57694606       1.89298735      -2.29350220
H        0.37305702       2.07857599      -0.53205264
H        0.24339549       0.47574168      -1.29911058
H        2.76397065       0.60470570      -1.89036743
H        2.49085860       2.28718029       0.66692957
H        4.83887525       0.79463187      -0.71400766
H        4.65551833       0.96003033       1.04525409
H        4.14342631       3.45897866      -1.49057879
H        5.46258492       4.46059605      -1.01797719
H        6.26169275       2.39661024       1.65410842
