15
Properties=species:S:1:pos:R:3 -1492.8725938419568=T 11.445092=T 11.33538=T -8.4212=T -6.5089=T -9.066=T 0.8935=T -0.7118=T -0.094=T 8.48927=T 0.72394=T 4.218189699=T 4.940532135=T 0.346619555=T pbc="F F F"
C        0.94549637      -0.09074640       0.22832436
C        2.43838475      -0.07825167       0.03503177
C        3.17112942      -1.20843522       0.00664477
N        3.05293698       1.18795508      -0.08478036
N        4.46678878       1.22418019      -0.22770288
C        2.39651283       2.39573288      -0.18232009
O        2.98799637       3.46869505      -0.30821712
H        0.63457674       0.49240716       1.10796284
H        0.61836076      -1.12628406       0.37413463
H        0.41183157       0.30938035      -0.64674747
H        2.67135943      -2.16785838       0.12165689
H        4.24443699      -1.19609388      -0.16420357
H        4.86379227       1.06137945       0.70756366
H        4.65155696       2.21510475      -0.44539842
H        1.29697979       2.30610469      -0.16071901
