14
Properties=species:S:1:pos:R:3 -1476.1632545606851=T 9.988128=T 11.3746=T -10.6101=T -8.4388=T -11.721=T 0.6972=T -0.347=T 1.385=T 11.25235=T -0.99672=T 5.3725489534=T 11.062960815=T 0.236690238=T pbc="F F F"
C        1.07809206       0.18533225      -0.00949407
C        2.58835131      -0.11167718      -0.09941081
C        2.88467064      -0.93429900      -1.27784800
N        3.09543716      -1.57849816      -2.22700831
C        3.40638651       1.17584051      -0.13227020
C        3.85130816       1.81126016       1.11802683
O        4.77626187       1.08826192       0.28026161
H        0.86584430       0.75710496       0.90322441
H        0.50069166      -0.74674547       0.01599364
H        0.74290308       0.77040205      -0.87630403
H        2.90953278      -0.68663484       0.78549858
H        3.23588797       1.80815057      -1.01254536
H        3.61856455       1.33243024       2.07601888
H        3.99820796       2.89533200       1.15121683
