15
Properties=species:S:1:pos:R:3 -1471.9796885761739=T 12.074231=T 12.24626=T -8.1128=T -6.0985=T -9.013=T 1.3136=T -0.1888=T 0.602=T 8.59197=T -0.04287=T 5.013869854=T 6.2060324398=T 0.252759728=T pbc="F F F"
C        0.03009757       0.53559675      -0.23536258
C        1.37842166       0.14954992       0.28846331
C        2.48039673       0.87956735       0.08798980
O        3.70428375       0.43436647       0.57103787
C        4.77265908       1.28852127       0.51214470
N        4.68483607       2.50559162       0.14167683
N        5.87094233       3.23365872       0.02329857
H       -0.36888928      -0.23192578      -0.91826061
H        0.06607483       1.48803658      -0.78255040
H       -0.70119826       0.64122415       0.58210140
H        1.46467744      -0.77882311       0.86088679
H        2.51388244       1.82630339      -0.45232999
H        5.68954393       0.76855600       0.82287501
H        5.65426363       4.21216661       0.21307518
H        6.60299807       2.92252007       0.67534412
