18
Properties=species:S:1:pos:R:3 -1739.1377978440464=T 11.307142=T 12.47133=T -9.0705=T -6.8627=T -10.404=T 0.9057=T -0.0429=T 2.978=T 9.82421=T -2.74232=T 8.4219598262=T 11.4022609026=T 0.095459162=T pbc="F F F"
C        1.90772567      -0.49146369      -1.23107234
O        2.16964763       0.07772474       0.04637149
C        3.04296993       1.19040033      -0.03127457
C        2.48854716       2.55010697      -0.55237012
C        3.19941135       3.25558452       0.63862136
N        4.41876980       3.95313442       0.22636748
C        3.33320070       1.85307249       1.32827894
H        1.25109207      -1.35587581      -1.06997425
H        2.84072055      -0.83233710      -1.71990223
H        1.40067283       0.22432394      -1.90407938
H        3.96852421       0.89654092      -0.56705181
H        1.39419465       2.58354256      -0.45161347
H        2.77736067       2.89032330      -1.55660894
H        2.57936675       3.97739531       1.18956442
H        5.03973618       3.31719842      -0.28258781
H        4.94070076       4.25960071       1.05229507
H        4.28516121       1.61690602       1.82464954
H        2.50104788       1.65696195       2.02071662
