15
Properties=species:S:1:pos:R:3 -1513.1303333630342=T 11.343925=T 11.70297=T -9.205=T -7.3116=T -9.935=T 1.1182=T -0.6417=T -0.289=T 10.11592=T 0.81032=T 4.2056175186=T 5.4105878582=T 0.394681571=T pbc="F F F"
C        1.23717202       0.31364868      -1.47693904
N        2.58781716       0.15762069      -0.97083024
C        3.18665246       1.21216144      -0.57838898
N        4.48529247       1.17978262      -0.07226824
C        5.19439950      -0.09411292       0.02734478
C        5.10010272       2.35853069       0.32605099
O        6.23232472       2.44292201       0.77474991
H        1.19415192      -0.04278100      -2.51752742
H        0.85984463       1.35426225      -1.44595404
H        0.55376100      -0.32359445      -0.89547364
H        2.74979692       2.22759081      -0.59811106
H        4.59389422      -0.80410262       0.60926097
H        6.15363424       0.10260576       0.51588846
H        5.35171587      -0.51530589      -0.97432271
H        4.43207014       3.23721192       0.18845026
