16
Properties=species:S:1:pos:R:3 -1593.1403832725919=T 11.249281=T 12.28305=T -9.7938=T -7.5481=T -9.911=T 0.709=T -0.3176=T 2.259=T 9.50094=T -1.87383=T 4.364865137=T 10.4326903826=T 0.35024753=T pbc="F F F"
N        0.94333921      -0.04434836      -0.23166660
C        2.39167989      -0.11268251      -0.51198307
C        2.58327684      -1.17788417      -1.60286570
O        1.74308986      -0.92686873      -2.72368792
C        2.86250924       1.28100825      -0.98481142
C        4.30553407       1.36621643      -1.15613509
C        5.51106519       1.42162582      -1.28752423
H        0.72227957       0.76583411       0.35124231
H        0.65082339      -0.87141225       0.29507977
H        2.99722186      -0.40092094       0.36880917
H        2.37428625      -2.17581239      -1.16536098
H        3.62502533      -1.17613776      -1.95519422
H        0.89984936      -0.61911304      -2.32550924
H        2.54379781       2.04098228      -0.25047679
H        2.35692505       1.51790860      -1.93547851
H        6.57299709       1.47568465      -1.41424747
