19
Properties=species:S:1:pos:R:3 -1956.8085647312341=T 11.697576=T 12.75414=T -10.4177=T -8.0907=T -11.652=T 0.9274=T 0.006=T 3.112=T 11.49404=T -2.93408=T 10.0813264572=T 11.1326657442=T 0.239092833=T pbc="F F F"
C       -1.25038627      -0.78209455      -0.52854907
C       -1.25341843       0.78176630      -0.52271011
C       -0.00517262       1.13181802       0.31974819
C        1.25540846       0.78437101      -0.50556809
C        1.25836824      -0.77948907      -0.50793136
C       -0.00237024      -1.13388838       0.31385545
C       -0.01166632      -0.00377353       1.36619706
H       -1.19184494      -1.20406081      -1.54312862
H       -2.16267247      -1.18159378      -0.06029525
H       -2.16601802       1.17394319      -0.04880877
H       -1.19930109       1.21183775      -1.53411225
H       -0.00893353       2.15698282       0.71513752
H        2.16050452       1.18132379      -0.02145284
H        1.21223632       1.21170354      -1.51867092
H        2.16378079      -1.17423456      -0.02252360
H        1.21937498      -1.20419469      -1.52229188
H       -0.00450577      -2.16109728       0.70390959
H       -0.91322336      -0.00633987       1.99801606
H        0.88029976      -0.00452990       2.01148891
