15
Properties=species:S:1:pos:R:3 -1486.4702756642096=T 10.72752=T 11.26139=T -8.4302=T -6.5361=T -9.38=T 0.642=T -0.4396=T 0.985=T 8.54448=T -0.41284=T 5.002029191=T 11.4218630892=T 0.252072828=T pbc="F F F"
O        0.98705080       0.13227995       0.37145144
C        2.37019547       0.08910056       0.06017506
C        3.19802674       0.93867042       1.05506046
N        3.88803965      -0.28655227       1.48917765
C        3.16616745      -1.16404909       0.54761182
C        5.17897768      -0.39702053       1.93844490
N        5.94885720       0.51825661       2.41846974
H        0.50228486      -0.36998741      -0.30642958
H        2.55264419       0.33999346      -0.99690720
H        2.58382291       1.41544263       1.83498432
H        3.86647788       1.68673643       0.59568347
H        3.80639864      -1.63885174      -0.21394685
H        2.53512451      -1.92247144       1.03817839
H        5.55773886      -1.42931617       1.88259712
H        5.47251318       1.43327859       2.43028927
