17
Properties=species:S:1:pos:R:3 -1744.9700382686651=T 11.236866=T 12.02673=T -8.4335=T -6.3186=T -8.927=T 0.9131=T -0.04=T 1.254=T 8.47786=T -0.68272=T 5.9325689182=T 0.272645009=T pbc="F F F"
C        1.69742213      -0.07648641       0.01009867
C        0.82422757      -1.22947468       0.53589500
C       -0.41273139      -1.53018112      -0.32478707
C       -1.49698538      -0.48317762      -0.19690569
C       -1.34978414       0.82367800       0.08627539
O       -0.18869076       1.55041010       0.17582604
C        0.90497701       1.05664322      -0.63163003
H        2.39597798      -0.44792453      -0.75996624
H        2.31727082       0.31915018       0.82992771
H        1.44388921      -2.13538389       0.62856935
H        0.47522272      -0.98484923       1.55152440
H       -0.83960246      -2.49266209      -0.00020751
H       -0.12006530      -1.68781212      -1.38001719
H       -2.53147713      -0.82639499      -0.26761437
H       -2.21562975       1.46099355       0.28341074
H        1.55058035       1.93074286      -0.80191422
H        0.48735852       0.74283876      -1.60340498
