20
Properties=species:S:1:pos:R:3 -1930.2683005998595=T 12.40502=T 13.74673=T -8.5221=T -6.5101=T -10.069=T 0.8989=T -0.0001=T 2.938=T 9.39215=T -2.5727=T 7.9672039754=T 11.2671285612=T 0.121186877=T pbc="F F F"
C        2.33238216      -1.36935252      -0.47228959
C        1.95284975       0.03018033       0.02142098
C        3.14435059       0.91353089       0.37384468
C        3.93931924       0.46640966       1.58609692
C        3.84729639       1.63460519      -0.73740839
N        2.89211175       2.35147278       0.11770384
C        3.44242174       3.36337892       1.01382933
H        1.43722990      -1.93473124      -0.76779063
H        2.84908240      -1.95704556       0.30074698
H        2.99666868      -1.31309694      -1.34848600
H        1.29734991      -0.04870079       0.90689437
H        1.36907798       0.55711830      -0.74841896
H        4.81114973       1.10290481       1.78078389
H        4.31294230      -0.55767060       1.44181619
H        3.30618936       0.46330926       2.48818727
H        3.54135820       1.48787422      -1.77811879
H        4.91386369       1.84892427      -0.59668172
H        2.78557601       3.47412049       1.88914988
H        3.45500819       4.32441268       0.47895310
H        4.47125204       3.16559583       1.37128665
