16
Properties=species:S:1:pos:R:3 -1571.1159804847202=T 9.754383=T 10.93565=T -9.305=T -7.1381=T -11.33=T 0.9562=T 0.0336=T 2.989=T 10.71056=T -2.72289=T 9.2388911816=T 10.2977068244=T 0.117385037=T pbc="F F F"
C        2.15314427      -0.51339274      -1.38768826
C        2.47100621       0.10771579      -0.02552249
C        3.28517429       1.38146292      -0.14460238
C        2.58919354       2.67650180      -0.62130017
C        3.14234821       3.28879788       0.67659418
O        3.58523721       1.98618637       1.15649585
H        1.56858422      -1.43635447      -1.27272241
H        3.07244404      -0.76740972      -1.93698930
H        1.56717829       0.17328572      -2.01750813
H        3.03890297      -0.60462530       0.59529233
H        1.54255530       0.33566377       0.52357808
H        4.22747563       1.17941959      -0.69187438
H        1.49373962       2.59399784      -0.64133911
H        2.94265899       3.11218081      -1.56368811
H        3.99527205       3.97459884       0.53082994
H        2.41716515       3.75131089       1.36432437
