18
Properties=species:S:1:pos:R:3 -1744.7789061424448=T 11.298881=T 12.94265=T -9.4186=T -7.0953=T -10.697=T 0.9217=T 0.0066=T 2.758=T 10.03926=T -2.50263=T 8.5392133864=T 10.734273929=T 0.152495069=T pbc="F F F"
C        1.49747570      -0.35158085       1.20914196
C        2.14811160       0.26973450      -0.03095618
C        3.18579874       1.30629939       0.32828086
O        3.62788369       2.19238020      -0.72434880
C        2.87809484       2.74543057       0.39150374
C        3.63146568       3.70151168       1.27953180
N        3.69462988       5.02405489       0.64179028
H        0.76310334      -1.11771724       0.92534904
H        0.97565168       0.40802244       1.80985387
H        2.24604481      -0.83340907       1.85604306
H        1.38839975       0.73855490      -0.67522125
H        2.63218938      -0.51603213      -0.63438080
H        4.00645084       0.94338264       0.96500959
H        1.86554590       3.06940907       0.11634791
H        4.61715876       3.25402971       1.51749174
H        3.07748826       3.80485354       2.22806034
H        4.25528000       4.95603401      -0.21207731
H        4.17758716       5.68541174       1.25302017
