19
Properties=species:S:1:pos:R:3 -1811.4100571188492=T 11.807611=T 12.79571=T -8.5699=T -6.4857=T -10.068=T 0.8481=T -0.1164=T 3.008=T 9.3742=T -2.66155=T 8.1256332862=T 10.8584583066=T 0.084333922=T pbc="F F F"
C        0.89898318      -0.10122269       0.17934097
C        2.40787703       0.00668449      -0.00392627
C        2.80793592      -0.00271402      -1.48979500
N        2.23971749       1.13561005      -2.22620072
C        3.14518727       1.12015962       0.79424614
C        4.14848628       0.02536749       1.22514177
N        3.17370473      -1.01514315       0.78757238
H        0.65795406      -0.16601950       1.24877799
H        0.50698653      -1.00720793      -0.31103750
H        0.38212493       0.77583797      -0.23938955
H        2.52917272      -0.99601243      -1.90601788
H        3.90562491       0.07572901      -1.55506743
H        1.24248187       0.98642667      -2.39503351
H        2.67562425       1.20961475      -3.14713203
H        2.54644649       1.50405736       1.63075627
H        3.52316738       1.95919837       0.19782378
H        5.08617667       0.05466862       0.64169319
H        4.40571388      -0.03026687       2.29424041
H        3.57506440      -1.76857784       0.21991700
