20
Properties=species:S:1:pos:R:3 -1935.6077454204637=T 12.469429=T 13.80759=T -8.5294=T -6.4299=T -9.962=T 0.9525=T 0.0552=T 3.13=T 9.24571=T -2.88112=T 8.0593875664=T 10.055450579=T 0.089581536=T pbc="F F F"
C        2.04550912      -0.56399676      -1.30859905
N        2.23005264       0.05941862       0.00189401
C        3.14177861       1.19512956      -0.03824411
C        2.56471299       2.53602918      -0.57462683
C        3.25030887       3.27669691       0.61457458
C        4.56208873       3.96982887       0.25892436
C        3.41959310       1.89380583       1.31528880
H        1.40803260      -1.45316396      -1.20875171
H        2.99292632      -0.86442539      -1.80569338
H        1.52923114       0.14051555      -1.97849141
H        2.60275031      -0.63489596       0.65586864
H        4.09225861       0.95113370      -0.56180461
H        1.46863195       2.53753227      -0.48454754
H        2.85074063       2.84994930      -1.58926345
H        2.59704003       3.98150422       1.15070700
H        5.24299880       3.29417028      -0.28194291
H        5.08518941       4.31574702       1.16391818
H        4.38475305       4.84671604      -0.38274574
H        4.38387214       1.69218916       1.80495882
H        2.60113098       1.69069556       2.02147633
