14
Properties=species:S:1:pos:R:3 -1383.4109920082435=T 10.854318=T 11.09341=T -8.7201=T -6.7451=T -9.486=T 1.2862=T -0.4034=T 0.897=T 8.72798=T -0.38088=T 5.0427833892=T 6.025533621=T 0.324141849=T pbc="F F F"
C        0.94576373      -0.26595477      -0.71118187
C        2.14751618      -0.17614838      -0.13139168
C        3.04626099       1.02360352      -0.24007310
N        4.34975916       0.67433424      -0.79583280
C        5.54497154       1.15899865      -0.31028595
N        6.72892425       1.07109414      -0.80364908
H        0.32231902      -1.15400935      -0.60193570
H        0.54162587       0.55486471      -1.30977863
H        2.54113501      -1.01228164       0.45624908
H        3.23179372       1.44284156       0.76280757
H        2.54720529       1.81387121      -0.83078567
H        4.35335801       0.25179330      -1.72214791
H        5.42375307       1.67032885       0.65758920
H        6.72572417       0.57758395      -1.70965344
