17
Properties=species:S:1:pos:R:3 -1754.1767933050899=T 11.745779=T 12.72506=T -8.2762=T -6.2049=T -9.016=T 0.8744=T -0.0267=T 1.412=T 8.43851=T -0.81567=T 6.1981965246=T 0.413656439=T pbc="F F F"
C        1.03761523      -0.08799983       0.05759810
C        2.54705222       0.05139128       0.06126416
C        3.11611768       1.23344181       0.85167209
C        4.50832503       0.71768693       1.23722658
C        4.27690643      -0.77101753       1.37678981
C        5.01535634      -1.67351368       2.03789645
O        3.12667545      -1.12421205       0.70143308
H        0.73154027      -1.00029435      -0.47146345
H        0.58031080       0.77290817      -0.45062190
H        0.65323841      -0.13512900       1.08660976
H        2.92514567       0.07902833      -0.97934892
H        2.50353534       1.40447167       1.75120826
H        3.13542163       2.15965449       0.26229062
H        5.23077047       0.90841227       0.42607657
H        4.91240675       1.16104733       2.15579375
H        4.74420084      -2.72777797       2.04680855
H        5.90462146      -1.35510784       2.57705649
