15
Properties=species:S:1:pos:R:3 -1448.580333144405=T 9.95957=T 10.53403=T -9.5032=T -7.2045=T -9.384=T 0.9263=T -0.2682=T 1.293=T 8.78925=T -0.6832=T 6.4694530954=T 0.414613647=T pbc="F F F"
N        2.85095824      -0.72068268       0.99523700
C        2.27196878       0.20301757       0.00069891
C        2.80611307       1.60329050       0.20038404
C        1.99556847       2.64131684       0.44992998
C        4.30801879       1.74648333       0.09102888
O        4.79713110       3.08479130       0.13403873
H        2.57103702      -1.68046500       0.78392477
H        2.47153436      -0.50339584       1.92059073
H        1.16523162       0.24108231      -0.00288116
H        2.58406044      -0.16008321      -0.99484991
H        0.91396729       2.50774222       0.51386383
H        2.39089614       3.64552523       0.61048452
H        4.64455413       1.22646006      -0.82941689
H        4.78730127       1.21655957       0.92764788
H        4.40260929       3.56196781      -0.61821130
