15
Properties=species:S:1:pos:R:3 -1523.0949319023862=T 11.875932=T 12.04609=T -8.2127=T -6.2944=T -9.042=T 1.1106=T -0.3248=T -0.042=T 8.511=T 0.6563=T 4.207712882=T 4.8405622232=T 0.372413201=T pbc="F F F"
C        1.21504034      -0.38367286      -0.16587460
N        2.63322156      -0.16032843       0.03380017
C        3.22015772       1.08035224      -0.13803063
O        2.56221029       2.07113613      -0.48765153
C        4.67152065       1.10546966       0.12172933
C        5.34317726       2.27407353      -0.01373926
N        6.67256702       2.49863022       0.23978412
H        1.03114176      -1.13927716      -0.94541720
H        0.78419785       0.57266316      -0.48736845
H        0.71886442      -0.70290863       0.76442757
H        3.21614789      -0.93245972       0.33907579
H        5.18653279       0.18759131       0.42064537
H        4.76545225       3.15341482      -0.31217138
H        7.29317262       1.69955189       0.32901445
H        7.09880558       3.32623384      -0.16054374
