19
Properties=species:S:1:pos:R:3 -1873.0012060170707=T 12.421285=T 13.71391=T -8.583=T -6.5294=T -9.108=T 0.9431=T 0.0672=T 1.319=T 8.49805=T -0.73608=T 6.2053877126=T 0.356183247=T pbc="F F F"
C        0.63577974       0.44736941      -1.01877356
C        1.88043929      -0.25508434      -0.47511095
C        3.04185105       0.72100276      -0.21821480
C        4.27930113       0.05705879       0.32126334
C        4.77580755       0.26092428       1.55635613
O        4.81505322      -0.78934691      -0.61839146
C        5.98207448      -1.51687093      -0.23770705
H       -0.18128277      -0.26706687      -1.19427748
H        0.84784681       0.95270913      -1.97370870
H        0.26634074       1.20981917      -0.31536925
H        2.21437437      -1.02998433      -1.18233365
H        1.63798881      -0.77417342       0.46700566
H        2.72650840       1.49882583       0.49337699
H        3.29919953       1.23120662      -1.16314019
H        4.27091911       0.95929472       2.22031095
H        5.66629078      -0.23605582       1.93467492
H        6.25382035      -2.12975988      -1.10467247
H        5.77811403      -2.16751412       0.62880350
H        6.81208339      -0.83439408       0.00940804
