16
Properties=species:S:1:pos:R:3 -1683.8314164972537=T 12.176022=T 13.06002=T -9.5325=T -7.547=T -9.336=T 0.4723=T -1.1833=T 0.011=T 8.81898=T 0.52329=T 5.0109933788=T 5.1846853662=T 0.270474005=T pbc="F F F"
C        2.37438554      -0.66553941       1.45261169
C        2.21093291       0.04299622       0.10010348
C        2.79891978       1.43969193       0.08991725
C        2.11703576       2.60645717       0.00352104
C        0.63957611       2.78418879      -0.10707701
C        4.22712154       1.50020003       0.20018860
N        5.39398163       1.49885117       0.29243924
H        1.96679933      -1.68478965       1.40426067
H        1.84636132      -0.12149305       2.24865788
H        3.43355403      -0.73751873       1.73727708
H        1.14884862       0.09243121      -0.17490810
H        2.71126085      -0.54777063      -0.68419201
H        2.70690368       3.52770088       0.01513852
H        0.08255762       1.84030154      -0.09700180
H        0.38782772       3.32364435      -1.03432384
H        0.26981357       3.40976819       0.72094731
