13
Properties=species:S:1:pos:R:3 -1272.6479156304179=T 8.072537=T 8.91749=T -9.2632=T -7.0353=T -10.957=T 1.0272=T 0.0341=T 3.119=T 10.64796=T -2.83425=T 8.697555907=T 11.2388225574=T 0.287371322=T pbc="F F F"
C        0.99970091       0.00762084      -0.06079041
C        2.50958213      -0.03072486      -0.00141146
C        3.32230867      -0.71524185      -1.09952195
C        3.35221903       0.78323038      -0.94482652
O        4.51040485       1.48161311      -0.53565576
H        0.59621252       0.84199188       0.53254374
H        0.55894594      -0.92578612       0.32196791
H        0.65114808       0.13546060      -1.09649962
H        2.92979163      -0.13857866       1.00414435
H        2.79254270      -1.14428865      -1.95274826
H        4.21167481      -1.27195268      -0.79681358
H        2.82863998       1.37825356      -1.69621460
H        4.99086876       0.92646245       0.10351615
