14
Properties=species:S:1:pos:R:3 -1478.1418500281557=T 13.317273=T 13.69141=T -7.5166=T -5.7175=T -7.918=T 1.2297=T -0.2081=T 0.38=T 7.31004=T 0.19446=T 4.1948679324=T 5.968004117=T 0.385691183=T pbc="F F F"
C        0.88659339       0.08840196       0.01062057
C        2.38165341       0.00331439       0.00160679
C        3.29411300       1.02964680      -0.06089298
C        4.66097643       0.59622723      -0.05861344
N        5.73533897       1.49613109      -0.19346720
C        4.76619311      -0.77773297       0.00480310
S        3.20149371      -1.53493981       0.05364250
H        0.57349824       1.14090369       0.01933057
H        0.45302618      -0.39914510       0.89651638
H        0.44467036      -0.38633951      -0.87844593
H        2.99827272       2.07835348      -0.11778316
H        5.57207471       2.38274829       0.28078817
H        6.62802241       1.10552714       0.10238927
H        5.66398336      -1.38884670       0.02063536
