17
Properties=species:S:1:pos:R:3 -1657.330598185905=T 12.320209=T 12.90638=T -8.3104=T -6.3425=T -9.072=T 1.4408=T -0.2398=T 0.689=T 8.47499=T -0.1579=T 4.8023869338=T 5.3538518646=T 0.368395069=T pbc="F F F"
C        1.90432957       0.04456436       2.40851855
N        3.01690685      -0.08357121       1.77404314
N        3.92479103       0.92673277       1.83124568
C        4.87281637       0.97210191       0.72686256
C        5.94189132       2.08674407       0.80495641
C        6.97459598       1.06110280       0.25822127
C        6.01459603      -0.07539592       0.70464768
H        1.21533118      -0.79998494       2.39831068
H        1.62855432       0.95562455       2.96670484
H        3.54325107       1.84862431       2.08773145
H        4.35473403       0.99492493      -0.24994654
H        6.15496152       2.33934561       1.85476603
H        5.76644626       3.00991271       0.23580179
H        7.06227951       1.11856004      -0.83582775
H        7.98217597       1.07850341       0.69243361
H        5.89251406      -0.94772337       0.05082387
H        6.23179496      -0.41318604       1.72773674
