17
Properties=species:S:1:pos:R:3 -1656.471523585766=T 13.087111=T 13.52124=T -8.4121=T -6.4351=T -9.13=T 1.4324=T -0.2922=T 0.631=T 8.55816=T -0.10299=T 4.7776021324=T 6.6664668494=T 0.430412913=T pbc="F F F"
C        1.29605337       0.51047059       1.73706225
C        1.86204285       0.62195640       0.52956160
C        2.78394091       1.72593966       0.10616518
C        4.17440847       1.20331894      -0.28637815
N        5.03544326       2.27526650      -0.78818077
N        4.68189409       2.78665027      -1.99541961
C        5.57181688       3.39189408      -2.70136340
H        0.63002344      -0.31815551       1.98198330
H        1.47516946       1.25278546       2.51960076
H        1.65260165      -0.14627036      -0.22504534
H        2.88904693       2.47284993       0.90811198
H        2.36867076       2.24547404      -0.77340955
H        4.07263401       0.38879951      -1.02854884
H        4.67670434       0.78330018       0.59787814
H        6.04087288       2.10789807      -0.65861245
H        5.25301995       3.83998330      -3.64236333
H        6.62687674       3.48534894      -2.39409178
