13
Properties=species:S:1:pos:R:3 -1327.72113829578=T 8.86644=T 9.89631=T -11.1757=T -8.8999=T -11.917=T 0.9031=T -0.4695=T 1.215=T 11.50445=T -0.83497=T 5.3901797626=T 12.408580873=T 0.250363117=T pbc="F F F"
C        0.94472857      -0.09087258      -0.02485316
C        2.47021426      -0.03123984       0.02566822
C        2.99830294       1.41500343       0.05129566
O        2.54846174       2.16915896       1.17975978
C        4.47208649       1.43027283      -0.03852731
N        5.63829011       1.41943170      -0.07090598
H        0.59845313      -1.13269305      -0.00166475
H        0.55983615       0.36981884      -0.94692916
H        0.49842256       0.43832108       0.82741284
H        2.90997599      -0.53934371      -0.84723588
H        2.85452212      -0.55681441       0.91591197
H        2.60750204       1.96000957      -0.82454077
H        2.96308391       1.79044717       1.97731854
