19
Properties=species:S:1:pos:R:3 -1877.0230215158274=T 12.486513=T 13.41967=T -8.8111=T -6.7107=T -8.639=T 0.8377=T -0.1844=T 1.316=T 8.04669=T -0.60009=T 5.8141870854=T 0.259942499=T pbc="F F F"
C        0.94282687      -0.13040847       0.16671215
C        2.44724486      -0.06850669       0.06409353
C        3.07465709      -1.44253267       0.09059253
C        3.14157859       1.09291204      -0.03206511
C        2.50785820       2.46355324      -0.10050093
C        4.64983057       1.14761749      -0.09813053
O        5.13260169       1.55197937      -1.39903067
H        0.46286930       0.85079289       0.24466467
H        0.64999707      -0.71733167       1.05363136
H        0.51343730      -0.65624663      -0.70317387
H        2.60199518      -2.08552399      -0.67075466
H        2.89109407      -1.93420523       1.06086190
H        4.15485875      -1.45014710      -0.09016294
H        1.45627442       2.45030850      -0.40829648
H        3.06040147       3.08643541      -0.81946990
H        2.56810301       2.97398607       0.87619600
H        5.11732497       0.19913698       0.20897029
H        5.02109447       1.92736891       0.58659483
H        4.73115214       0.94252157      -2.04465215
