20
Properties=species:S:1:pos:R:3 -1943.0759348180475=T 13.175505=T 14.36102=T -8.9874=T -6.8544=T -9.033=T 0.9249=T 0.0379=T 1.472=T 8.49181=T -0.82922=T 6.3231124196=T 0.407813054=T pbc="F F F"
C        3.34014794      -1.26789707       0.02688137
C        2.59595244      -0.12378770       0.71838905
C        3.05867544       1.29063598       0.29220072
N        2.21225902       2.37987425       0.82983197
C        4.48828872       1.54108825       0.69254805
C        5.50882246       1.74922773      -0.14834537
C        6.93148873       1.98449858       0.25803599
H        2.95512873      -2.24561941       0.35016534
H        4.41655325      -1.23650070       0.24853535
H        3.22609291      -1.21003102      -1.06698469
H        2.70073988      -0.21128256       1.81495421
H        1.51585860      -0.20439066       0.50436978
H        2.99450860       1.35322121      -0.80966721
H        2.30853157       2.40783417       1.85060798
H        1.22757255       2.15825351       0.65090760
H        4.68461605       1.53550624       1.77497479
H        5.30278359       1.75645751      -1.22593199
H        7.05050671       1.95697421       1.35026180
H        7.28933064       2.96276780      -0.10146342
H        7.60226217       1.22751968      -0.17965132
