13
Properties=species:S:1:pos:R:3 -1350.6619170219665=T 10.731867=T 10.77047=T -8.2564=T -6.3771=T -8.935=T 0.7728=T -0.8056=T -0.132=T 8.31238=T 0.65968=T 4.7254288236=T 4.8273825114=T 0.400501266=T pbc="F F F"
C        0.94222196      -0.03999975       0.02740711
C        2.42876013       0.07580452       0.05366010
C        3.24438957       1.15668585      -0.00420696
C        4.62154093       0.69478183       0.02962436
N        5.78396440       1.22664063       0.01171614
O        4.56661838      -0.71372156       0.11092422
N        3.18990431      -1.08073171       0.23489380
H        0.48605401       0.94794675      -0.09917360
H        0.56987837      -0.48321992       0.96208659
H        0.60532456      -0.68170734      -0.80144948
H        2.94289812       2.19765419      -0.05046234
H        5.69956974       2.24675285      -0.02397123
H        3.02637552      -1.83823633      -0.43817870
