13
Properties=species:S:1:pos:R:3 -1439.4589856642958=T 10.102127=T 10.8591=T -7.7732=T -5.7368=T -7.969=T 0.8732=T -0.0754=T 0.535=T 7.61243=T 0.03649=T 4.2827616078=T 6.847560801=T 0.438421885=T pbc="F F F"
C        1.01480596      -0.08199980      -0.00696030
C        2.48565581       0.10928688       0.00087173
C        3.31713829       1.19105517       0.00384251
C        4.67461444       0.71066439       0.01083256
C        4.56907907      -0.64908198       0.01167212
O        5.51115255      -1.61979373       0.01754116
O        3.26493577      -1.05440683       0.00571010
H        0.52346818       0.89885881      -0.00258093
H        0.66817270      -0.64046117       0.87688502
H        0.67554947      -0.62884066      -0.90095602
H        2.99873629       2.22957727       0.00127674
H        5.59289201       1.28616153       0.01486131
H        5.05535946      -2.48185988       0.01675399
