19
Properties=species:S:1:pos:R:3 -1812.109179729268=T 11.13545=T 12.51752=T -9.8139=T -7.6676=T -11.757=T 0.9881=T 0.0958=T 3.035=T 11.04654=T -2.72544=T 9.398820723=T 10.5089665698=T 0.092398248=T pbc="F F F"
C        1.47124247      -1.10280958      -0.53716050
C        1.16072856       0.08945893       0.36955394
C        2.32599460       0.44462340       1.29105772
O        2.20844229       1.71832173       1.92332310
C        1.03585592       1.88828642       2.72739603
O        2.46491084      -0.61358569       2.22683736
C        3.68365978      -0.54912388       2.97054483
H        0.62324227      -1.32263906      -1.20057423
H        1.68271192      -2.00193920       0.05705249
H        2.34747845      -0.90217005      -1.17276191
H        0.27341417      -0.12901301       0.98367285
H        0.93406691       0.98259105      -0.23328326
H        3.26202475       0.54794555       0.70632925
H        1.19535161       2.80531687       3.30844677
H        0.89123081       1.04213668       3.41818206
H        0.12903686       2.01333879       2.11140972
H        3.69728677      -1.42661988       3.62865341
H        3.74151504       0.36829055       3.57773811
H        4.55968599      -0.58597961       2.29765226
