12
Properties=species:S:1:pos:R:3 -1201.8398115317882=T 10.061046=T 11.01795=T -10.1237=T -8.148=T -10.516=T 0.5162=T -1.1876=T -0.498=T 9.84953=T 1.14686=T 5.2626849588=T 6.3378047606=T 0.219539816=T pbc="F F F"
O        0.96489595       0.08509725      -0.13239789
S        2.42446954       0.00430482      -0.19784485
O        3.10543619      -0.02386552      -1.49705688
N        2.98433825      -1.33884034       0.72442614
C        3.39957122      -0.87686290       2.05946034
C        3.50936477       0.62993826       2.04747744
C        3.08135864       1.21716607       0.93054600
H        3.77539965      -1.71233006       0.19334146
H        4.35509335      -1.34798281       2.33286263
H        2.65680335      -1.18560325       2.81541554
H        3.86326526       1.16968413       2.92697695
H        3.00197383       2.27287434       0.68560312
