13
Properties=species:S:1:pos:R:3 -1362.0914826867634=T 12.6336=T 13.0271=T -7.9205=T -6.0553=T -8.198=T 1.0528=T -0.3016=T 0.249=T 7.61781=T 0.413=T 4.18514743=T 11.0340844756=T 0.272340086=T pbc="F F F"
C        1.01745688      -0.05473522       0.01125055
C        2.50760144       0.09511735      -0.01551217
C        3.19026947       1.28252516      -0.00769532
S        4.91354757       0.99693598      -0.05477484
C        4.56657593      -0.73914415      -0.06167761
N        5.58385758      -1.67176349      -0.16789525
N        3.29563646      -1.04458619      -0.04114598
H        0.51947504       0.92219810       0.03962614
H        0.70382698      -0.63496531       0.89166338
H        0.66968659      -0.60046253      -0.87838197
H        2.80149025       2.29562598       0.02601401
H        5.26861114      -2.61174382       0.06582427
H        6.46130468      -1.42398186       0.28146478
