14
Properties=species:S:1:pos:R:3 -1480.6735638214232=T 10.147211=T 11.80941=T -10.4245=T -8.3707=T -11.691=T 0.721=T -0.2835=T 1.357=T 11.31957=T -1.00071=T 5.3844888052=T 10.857082062=T 0.308684163=T pbc="F F F"
C        0.98798347      -0.05827319      -0.00253974
C        2.48458393       0.06576106      -0.08258958
O        3.11661147      -0.37129734      -1.31215915
C        3.15589493       1.02452766      -0.97754961
C        4.52049963       1.60112144      -0.63108527
C        5.28859566       1.98501270      -1.81379197
N        5.88905850       2.30503584      -2.76073200
H        0.59780554       0.54069962       0.83353833
H        0.69859200      -1.10487267       0.16827825
H        0.51585327       0.28304674      -0.93297797
H        3.03646261      -0.24101579       0.81689106
H        2.53374750       1.66197182      -1.61795823
H        5.09779304       0.86256689      -0.05499452
H        4.39432845       2.49504522       0.00167042
