20
Properties=species:S:1:pos:R:3 -1964.113084487496=T 12.034635=T 13.12258=T -9.033=T -6.8256=T -10.511=T 0.865=T -0.1028=T 3.073=T 9.8701=T -2.85033=T 8.5690816138=T 10.3929528696=T 0.175776523=T pbc="F F F"
N        0.98611149       0.02401422       0.07509516
C        2.46252987       0.01364998       0.03335942
C        2.95114100      -1.33790951      -0.51871363
C        2.59602263      -1.53885356      -1.99830799
C        3.11948835      -0.37973400      -2.85735171
C        2.60411043       0.96935662      -2.33790437
C        2.95905695       1.16676172      -0.85774286
H        0.65963355       0.90525548       0.48056671
H        0.65435114      -0.71645208       0.69897043
H        2.91101360       0.14849898       1.04028626
H        2.53547577      -2.15738029       0.09275908
H        4.04706783      -1.38288388      -0.39199463
H        3.00784363      -2.49686770      -2.35401436
H        1.50051156      -1.59902363      -2.10168026
H        4.22553635      -0.38097706      -2.84001574
H        2.82304150      -0.52117600      -3.90916383
H        3.02208710       1.79562627      -2.93498831
H        1.50896384       1.00710292      -2.45471670
H        4.05535939       1.23684043      -0.74655275
H        2.54913401       2.12191108      -0.48646991
