20
Properties=species:S:1:pos:R:3 -1930.7765396277093=T 12.400603=T 13.69658=T -8.2482=T -6.2673=T -9.829=T 0.8554=T -0.0539=T 2.969=T 9.17114=T -2.62183=T 7.7149296612=T 11.3919948618=T 0.258327207=T pbc="F F F"
C        1.03460433       0.03459265      -0.08069243
C        2.54562133       0.08210450      -0.03598998
N        3.41845990      -0.60286904      -1.01543105
C        2.82163648      -1.33230760      -2.12924915
C        3.39530053       0.87963989      -0.98912820
C        2.76488365       1.68058582      -2.11347637
C        4.68536562       1.48903779      -0.47001345
H        0.62008815       0.81216152       0.57882520
H        0.66580026      -0.93582338       0.28630556
H        0.61402003       0.19449759      -1.08078146
H        2.93692043      -0.01014966       0.98618871
H        2.60804752      -2.35988145      -1.79805377
H        3.55987616      -1.39446455      -2.94276851
H        1.88920977      -0.91408254      -2.55066964
H        1.82415864       1.26013032      -2.48669306
H        3.45985956       1.75484684      -2.96515706
H        2.55606911       2.70602042      -1.77195783
H        5.11332716       0.86261805       0.32342503
H        4.51193820       2.49985480      -0.06839507
H        5.43018317       1.56891805      -1.27783747
