13
Properties=species:S:1:pos:R:3 -1348.3084106066688=T 9.984001=T 10.35154=T -8.1657=T -6.1999=T -8.72=T 1.1333=T -0.5628=T -0.218=T 8.2692=T 0.74622=T 4.3469863558=T 11.9167656068=T 0.363371954=T pbc="F F F"
C        2.96074678      -1.20800019       0.47549297
N        2.35848674      -0.01621999      -0.11431940
C        3.06427918       1.18404798      -0.02850272
C        2.61308332       2.47594625      -0.16568914
O        3.65475300       3.34925426      -0.07999889
N        4.83425649       2.63100869       0.12208294
C        4.47203372       1.36002583       0.15194592
H        2.25634409      -2.04275417       0.37606014
H        3.22495171      -1.09259920       1.54370348
H        3.87030708      -1.48149095      -0.07892205
H        1.37439671       0.08719097       0.12114357
H        1.63464980       2.91601275      -0.32716702
H        5.23843138       0.60398776       0.30384020
