19
Properties=species:S:1:pos:R:3 -1917.8335518050005=T 13.364485=T 15.48701=T -9.2222=T -7.0361=T -9.114=T 0.8679=T 0.0001=T 2.479=T 8.65035=T -2.02973=T 4.1258573248=T 10.1652897764=T 0.500701398=T pbc="F F F"
C        0.96202099      -0.13144577      -0.08309739
C        2.47970538      -0.01875675       0.07046633
C        3.01727751       1.43373225       0.01563392
C        2.48399205       2.31054115       1.16607601
C        4.48203955       1.43894397      -0.00486146
C        5.69885312       1.43286700      -0.00074658
C        7.15524503       1.43170852      -0.00440388
H        0.65396993      -1.18640630      -0.10939742
H        0.61907241       0.33714197      -1.01882166
H        0.42281181       0.34508451       0.74798039
H        2.97401276      -0.59394668      -0.72771947
H        2.80089275      -0.47238429       1.02292962
H        2.66783415       1.87746655      -0.93650499
H        2.77832667       1.88895528       2.13867084
H        1.38807003       2.38047826       1.13339436
H        2.89298932       3.32739157       1.09945782
H        7.55492474       2.45701100      -0.01519593
H        7.55219101       0.91030136      -0.88849648
H        7.55651076       0.92745641       0.88764599
