15
Properties=species:S:1:pos:R:3 -1404.3368898103772=T 10.655184=T 11.91242=T -10.0478=T -8.0844=T -10.416=T 0.7979=T -0.2765=T -0.195=T 10.08792=T 0.53729=T 5.2230838304=T 11.3303242254=T 0.114452612=T pbc="F F F"
C        1.10141170      -0.13979858       0.07423013
C        2.60827467       0.00053153      -0.11164323
S        3.10317030       1.74357091      -0.00761417
O        2.68422529       2.44122892      -1.23575032
O        2.72308942       2.24943301       1.33106397
C        4.94104552       1.68039570       0.01917614
O        5.41558706       1.15191570       1.22588594
H        0.82313879      -1.20022451       0.01527000
H        0.55372849       0.40334867      -0.70676065
H        0.79080556       0.24630774       1.05330861
H        2.94402609      -0.34205907      -1.10061662
H        3.18172889      -0.51240347       0.67378347
H        5.22572994       2.73138858      -0.16900244
H        5.28066472       1.04695698      -0.81053083
H        4.99613355       1.66811789       1.94406999
