18
Properties=species:S:1:pos:R:3 -1662.517484344954=T 10.720722=T 11.44733=T -8.8814=T -6.6969=T -10.4=T 0.8594=T -0.1016=T 2.999=T 9.77792=T -2.69785=T 8.4212655046=T 11.663425013=T 0.098959548=T pbc="F F F"
C        0.95380843      -0.09981157      -0.03349178
C        2.47508334       0.07696179       0.06755167
N        3.22105487      -0.65232215      -0.98028771
C        2.92424703       1.56235052       0.02072556
C        2.27007866       2.42051009       1.10264977
N        4.38368702       1.72732494       0.09246349
H        0.42325274       0.33812833       0.82421184
H        0.69018067      -1.16714414      -0.07567655
H        0.56764116       0.37664728      -0.94993790
H        2.81932657      -0.33323204       1.03560216
H        2.82000780      -0.42694014      -1.89706876
H        3.09432126      -1.65976367      -0.85989576
H        2.60629512       1.95579719      -0.96672787
H        2.48005080       2.01214301       2.10572368
H        1.18088572       2.48350334       0.98437450
H        2.67900477       3.43913457       1.06011971
H        4.80033275       0.96767979      -0.45786527
H        4.68573130       1.56741285       1.05971921
