15
Properties=species:S:1:pos:R:3 -1604.002456356594=T 12.315589=T 12.80298=T -8.9656=T -6.9513=T -8.963=T -0.5645=T -2.2247=T -0.807=T 8.50194=T 1.40468=T 3.4288452286=T 5.4633686984=T 0.408872609=T pbc="F F F"
C        0.71549094       0.37644560       0.23970735
C        2.03791888       0.06085248      -0.37990019
C        3.23291659       0.38174964       0.14968771
C        4.54548589       0.09688881      -0.44182429
C        4.81260230      -0.00949903      -1.76276972
C        5.68192221      -0.04595714       0.52522233
O        6.82052578      -0.37290608       0.23469993
H        0.12783382      -0.53994023       0.41028611
H        0.11020509       1.01073530      -0.42846186
H        0.82867779       0.90012372       1.19870540
H        2.01353000      -0.48392936      -1.33120188
H        3.25090282       0.86939101       1.13299999
H        4.04721173       0.15126572      -2.52246633
H        5.82695370      -0.24836606      -2.08541550
H        5.41007247       0.17838562       1.58926097
