19
Properties=species:S:1:pos:R:3 -1874.0508402889639=T 12.752712=T 13.99311=T -8.1086=T -6.136=T -8.885=T 0.9469=T 0.0544=T 1.406=T 8.42451=T -0.83653=T 6.0750288322=T 0.370121587=T pbc="F F F"
C        1.50587874       0.41621717      -0.62366585
C        2.47125913       0.97730971       0.37555496
C        3.45775684       1.82581795       0.05297730
O        4.27557072       2.40255442       0.98874735
C        5.52916889       2.91958382       0.47451966
C        6.04336737       3.91149405       1.50672423
C        6.50725293       1.78032587       0.20167194
H        1.51675274      -0.68612623      -0.62212830
H        1.74132805       0.75272192      -1.64422247
H        0.46900775       0.72092991      -0.40388612
H        2.35452492       0.69402439       1.42566827
H        3.63192296       2.14346118      -0.98475077
H        5.31125060       3.45340187      -0.47167056
H        6.23020874       3.40394469       2.46418802
H        5.31055302       4.71160108       1.67517786
H        6.98464742       4.36325998       1.16491935
H        6.73268358       1.24129892       1.13356508
H        7.44786033       2.17114230      -0.21274039
H        6.08679528       1.06323701      -0.51714956
