17
Properties=species:S:1:pos:R:3 -1745.0990166500212=T 11.872421=T 12.9105=T -9.3652=T -7.1741=T -9.336=T 1.1953=T -0.844=T -0.08=T 8.71301=T 0.71762=T 3.668187803=T 6.3932389012=T 0.421524225=T pbc="F F F"
C        3.13362425      -1.71861129      -1.22367693
C        2.85765764      -0.86272037      -0.01438952
C        2.23857192      -1.35094568       1.07170757
C        3.29882526       0.58168892      -0.08417246
C        4.82075245       0.74912061      -0.14810861
C        5.29854488       2.17883536      -0.18234284
O        4.57948432       3.16076302      -0.19896554
H        2.68447566      -1.27569425      -2.12793752
H        2.73103347      -2.73217559      -1.09918049
H        4.21412212      -1.80871576      -1.42201722
H        1.91412593      -2.39239663       1.12254644
H        2.03181784      -0.72220072       1.94027308
H        2.91676096       1.13322127       0.78685569
H        2.85713229       1.06524912      -0.97241678
H        5.25865655       0.25386367      -1.03475663
H        5.31447168       0.26073610       0.71297742
H        6.41498280       2.29101220      -0.19159567
