17
Properties=species:S:1:pos:R:3 -1685.699699153767=T 11.750736=T 12.35252=T -8.345=T -6.1777=T -8.687=T 0.9313=T -0.0804=T 1.491=T 8.32896=T -0.85967=T 5.9043745018=T 0.243336539=T pbc="F F F"
N        2.42504776      -0.41088241      -1.54971764
C        2.42724753       0.05241461      -0.15372865
C        3.31571229       1.30069733      -0.00316933
N        3.40137473       1.72851215       1.41214984
C        3.29620056       3.20207116       1.48308920
C        2.75560963       3.57424266       0.13070383
C        2.77352966       2.52294069      -0.69591593
H        1.72531162      -1.14474336      -1.67356199
H        3.32734623      -0.83749899      -1.77707027
H        2.77042613      -0.70281538       0.58164569
H        1.39967260       0.32951180       0.12809525
H        4.31420829       1.04664972      -0.43105039
H        4.25525661       1.39250582       1.85406000
H        4.26978146       3.70366399       1.66721006
H        2.62213648       3.51261050       2.30260568
H        2.40648723       4.57817565      -0.11190055
H        2.44555118       2.49712407      -1.73385482
