18
Properties=species:S:1:pos:R:3 -1783.0839189136937=T 11.421748=T 12.61704=T -9.1738=T -7.2175=T -10.467=T 0.6976=T -0.2725=T 0.615=T 9.53654=T 0.04478=T 4.35872783=T 8.7339953924=T 0.183972574=T pbc="F F F"
C        1.84273884      -1.28959689       0.96302207
C        1.81729627      -0.10044432       0.00149728
C        3.05039351       0.80768637       0.09824706
N        4.29920995       0.15073292      -0.27110592
C        4.83036219       0.23989113      -1.53480519
C        6.11327331      -0.54487689      -1.75740723
O        4.31115071       0.90784737      -2.43031426
H        0.93141923      -1.89665368       0.86860878
H        1.91268076      -0.95684416       2.01092964
H        2.69634686      -1.95480027       0.76146271
H        0.92834211       0.52025067       0.20174656
H        1.72612304      -0.45167441      -1.03849731
H        3.15564056       1.20045222       1.12298188
H        2.93938035       1.66044557      -0.58557186
H        4.76445503      -0.44225164       0.40769856
H        6.51517773      -1.01242933      -0.84857200
H        6.86756718       0.13137772      -2.17925485
H        5.92087237      -1.32632237      -2.50495594
