21
Properties=species:S:1:pos:R:3 -1956.409157792901=T 12.464021=T 13.65811=T -9.0507=T -6.7707=T -10.556=T 0.8909=T -0.0778=T 3.115=T 9.92283=T -2.80781=T 8.7276597078=T 10.8469028114=T 0.132234856=T pbc="F F F"
C        1.01519351      -0.03925886       0.20354684
C        2.51183872      -0.05968341      -0.13544542
C        2.81333738      -1.00473069      -1.31227517
N        2.24542842      -0.51923161      -2.58259712
C        3.02962762       1.37144971      -0.36893487
C        4.53257474       1.49567457      -0.62864425
N        5.32468923       0.90545255       0.46543932
H        0.82390437       0.55397169       1.11035330
H        0.63015791      -1.05526070       0.38268746
H        0.42073819       0.41360560      -0.60659717
H        3.05564021      -0.47795891       0.72836945
H        2.46747291      -2.02090512      -1.03073120
H        3.90459118      -1.07425016      -1.43867002
H        1.22656258      -0.61237225      -2.56756073
H        2.56761205      -1.11006383      -3.35159039
H        2.76555857       1.98648405       0.51084567
H        2.49919103       1.80967121      -1.22934793
H        4.76275028       2.56357175      -0.81809507
H        4.78763222       0.95713575      -1.55513021
H        5.18260103       1.44906739       1.32182848
H        6.32151784       0.97710127       0.24984903
