18
Properties=species:S:1:pos:R:3 -1792.5392314154583=T 12.307996=T 13.07046=T -8.8193=T -6.648=T -9.037=T 0.8792=T -0.0428=T 1.444=T 8.4061=T -0.79527=T 6.3175082524=T 0.43998278=T pbc="F F F"
C        1.03915038       0.38182128       0.79377835
C        2.34081618       0.01606508       0.12902261
C        2.53754915      -1.19731591      -0.41477930
C        3.43510698       1.05115240       0.08630392
C        3.03072575       2.47579768      -0.41258009
N        2.97753376       2.94354549       0.99651981
C        3.77236214       1.76705306       1.43393331
H        0.57855471       1.26121414       0.31821732
H        1.19102030       0.65384453       1.84955986
H        0.32683393      -0.45195612       0.74884578
H        1.75966533      -1.96341122      -0.39592843
H        3.48245933      -1.45986604      -0.89520756
H        4.30989785       0.63033097      -0.42628382
H        2.07940957       2.56708528      -0.96157740
H        3.83608702       2.92668697      -1.02077297
H        3.41141739       3.85195846       1.17093197
H        4.85867229       1.94916798       1.52618758
H        3.41349794       1.29160597       2.36117908
