15
Properties=species:S:1:pos:R:3 -1610.6127256360317=T 11.104743=T 11.51755=T -8.5615=T -6.4578=T -8.47=T 0.2944=T -1.2776=T 0.408=T 8.02201=T 0.112=T 4.5266172726=T 7.2943567506=T 0.493625468=T pbc="F F F"
C        0.95116865      -0.00377063       0.06649573
C        2.48465416      -0.00215453       0.10228111
O        2.84444401      -0.00250764       1.50190552
C        3.05722619       1.18441757      -0.66418332
C        3.78425530       0.74048906      -1.70938387
C        3.78584754      -0.74008560      -1.71017153
C        3.05979750      -1.18668322      -0.66541453
H        0.58841253      -0.00354718      -0.96947902
H        0.56839204       0.88753438       0.58229276
H        0.57028041      -0.89648305       0.58125255
H        3.81818128      -0.00155671       1.54192832
H        2.86071344       2.21648415      -0.37768028
H        4.29700781       1.35461695      -2.44993015
H        4.29997425      -1.35231919      -2.45133563
H        2.86555488      -2.21947436      -0.37996766
