19
Properties=species:S:1:pos:R:3 -1813.2539260968995=T 12.570864=T 13.27859=T -8.341=T -6.3464=T -8.978=T 0.7975=T -0.1563=T 0.987=T 8.48419=T -0.31378=T 4.9456279596=T 10.8991009174=T 0.205063307=T pbc="F F F"
C        0.93896095      -0.10290956      -0.21718908
C        2.45575413       0.05430418      -0.01014288
C        3.24397215      -0.81799637      -1.00168841
C        2.87850624       1.50963139      -0.06909130
C        2.71797653       2.29452561      -1.34628698
N        3.34962730       2.02245378       1.02052771
N        3.66740064       3.37160630       1.01807494
H        0.37760104       0.48739093       0.52083296
H        0.64252211      -1.15711030      -0.10978732
H        0.62939280       0.22441636      -1.22222883
H        2.69992191      -0.27582788       1.01222495
H        3.04378907      -0.53142845      -2.04631525
H        2.95850341      -1.87500630      -0.89312155
H        4.32691063      -0.73870563      -0.82906445
H        2.25926616       1.69601641      -2.14227902
H        3.69055795       2.65364257      -1.72819133
H        2.09043428       3.18552762      -1.17914316
H        4.33048183       3.55275919       1.76934996
H        4.01952087       3.74006015       0.12650905
