17
Properties=species:S:1:pos:R:3 -1734.2283913299923=T 12.562896=T 12.88002=T -8.8893=T -6.8402=T -8.714=T 0.4619=T -1.0712=T 0.218=T 8.1771=T 0.31768=T 5.2883376622=T 0.74439377=T pbc="F F F"
C        1.03689523      -0.03998810      -0.44704843
C        2.54327813       0.17742568      -0.33258229
O        3.23312961      -0.45063713      -1.43816135
C        2.98844831       1.62743178      -0.17462009
C        2.14056362       2.66464669      -0.34883775
C        4.38681255       1.89636561       0.18421573
C        5.36743890       0.98923143       0.34135257
H        0.50743627       0.33317441       0.44135248
H        0.84200755      -1.11594221      -0.54280172
H        0.62103504       0.45741755      -1.33608126
H        2.90405966      -0.37676983       0.55095462
H        3.12641725       0.13571778      -2.20911685
H        1.08821883       2.52742132      -0.59455508
H        2.49058612       3.69311194      -0.24005281
H        4.62283498       2.95461168       0.34211081
H        5.20818688      -0.07490262       0.16547191
H        6.37042107       1.30418402       0.63082951
