14
Properties=species:S:1:pos:R:3 -1440.07894742768=T 11.375074=T 13.00733=T -9.4499=T -7.2201=T -9.456=T 0.8505=T -0.2826=T 2.031=T 9.04143=T -1.56353=T 4.1662519636=T 10.2716449672=T 0.476984289=T pbc="F F F"
N        1.30928953      -0.31935797       0.63256519
C        2.33809424       0.02537990      -0.36766773
C        2.74697671       1.42117501      -0.26170221
C        3.06460987       2.59462222      -0.20999039
C        3.44610417       3.97335580      -0.08480845
C        4.35159548       4.62509147      -1.05980693
O        2.94763017       4.91299793      -1.08043453
H        1.01118039      -1.28619344       0.48133695
H        0.48436389       0.26725264       0.48231588
H        2.03540234      -0.15646002      -1.41974122
H        3.21624145      -0.61713035      -0.18388784
H        3.43378250       4.37400030       0.93547256
H        4.72238212       4.03422730      -1.90336945
H        4.99750714       5.43998921      -0.71508183
