12
Properties=species:S:1:pos:R:3 -1336.7384124845291=T 9.327931=T 9.98904=T -8.4001=T -6.3733=T -8.944=T 0.6607=T -0.2445=T 0.284=T 8.57724=T 0.3724=T 4.7587190646=T 11.6642061248=T 0.223676191=T pbc="F F F"
C        0.97269886      -0.02719704      -0.00741354
C        2.44741034       0.10515163       0.00024708
C        3.28591751       1.16289566       0.00496454
N        4.58648697       0.64733009       0.01113647
C        4.56060831      -0.73364564       0.01041160
O        5.46704026      -1.53806700       0.01467099
O        3.19642074      -1.06977490       0.00333583
H        0.50870077       0.96662296      -0.00629007
H        0.61921175      -0.57825758       0.87697595
H        0.62764950      -0.57230907      -0.89882683
H        3.07343680       2.22494202       0.00441778
H        5.45498819       1.16810887       0.01589020
