17
Properties=species:S:1:pos:R:3 -1726.199507552768=T 12.100829=T 12.77406=T -8.7457=T -6.6514=T -9.35=T 1.351=T -0.2619=T 1.191=T 9.08455=T -0.63416=T 6.314730966=T 6.6553577038=T 0.459730051=T pbc="F F F"
C        0.91164711       0.02494093       0.42972578
C        2.34168973       0.33857841      -0.00445386
O        2.36089255       0.14669718      -1.44365424
C        3.57169386      -0.01848830      -2.05338672
C        4.80307519       0.00926011      -1.52206670
C        2.73608175       1.74587784       0.36116430
C        3.54931668       2.06764993       1.37111158
H        0.82499611       0.10826266       1.52065208
H        0.63902567      -0.99400706       0.12376256
H        0.20618414       0.73017744      -0.03157400
H        3.04044832      -0.38373686       0.45576523
H        3.41123232      -0.20343302      -3.11852689
H        5.00836309       0.22332814      -0.47628469
H        5.65008268      -0.16927125      -2.18144953
H        2.26359995       2.52852349      -0.24252203
H        4.03390735       1.30089889       1.98216617
H        3.75826349       3.10691147       1.62757095
