18
Properties=species:S:1:pos:R:3 -1738.068302375588=T 12.049464=T 13.08902=T -8.6511=T -6.4909=T -9.201=T 0.9359=T 0.0349=T 1.303=T 8.62231=T -0.72965=T 6.264330657=T 0.358960807=T pbc="F F F"
C        1.51277303       0.31838788       1.83973291
N        2.95522577       0.09606566       1.81648552
C        3.52110774       0.30244628       0.48035128
C        4.97045854      -0.09778439       0.42031489
C        5.97549851       0.72761747       0.08080028
O        5.09859113      -1.42714710       0.74336831
C        6.42428287      -1.95845045       0.76156446
H        1.11941610       0.07334580       2.83590765
H        0.94911632      -0.27195921       1.08494278
H        1.30058022       1.38303141       1.65246257
H        3.15789356      -0.86542565       2.09989719
H        3.43852411       1.36857733       0.21996558
H        2.97057633      -0.26838786      -0.30361268
H        5.75124622       1.76890521      -0.13895488
H        7.01381316       0.41112687       0.01366389
H        6.32716267      -3.00786774       1.06166121
H        7.05412472      -1.41843820       1.48709021
H        6.88613902      -1.89993332      -0.23768117
