19
Properties=species:S:1:pos:R:3 -1893.950485630617=T 11.6903=T 13.07035=T -9.1336=T -7.124=T -10.489=T 1.1897=T -0.5366=T 0.33=T 9.52946=T 0.40899=T 3.7660623514=T 8.0339580378=T 0.150644186=T pbc="F F F"
C        2.99542338      -1.54917201       0.09775192
C        2.50275940      -0.25974618       0.75807533
C        3.28584024       0.98928940       0.33285116
C        2.62850952       2.27878785       0.86598478
C        4.73471145       0.96044622       0.84075566
C        5.78110160       1.58462899      -0.05993320
O        5.02603005       0.47759041       1.92627892
H        2.39066497      -2.41028125       0.41549673
H        4.03940473      -1.76364527       0.36892273
H        2.93321928      -1.48703236      -1.00013277
H        2.57217880      -0.35199416       1.85347832
H        1.43929727      -0.10015116       0.51518427
H        3.31280532       1.04761666      -0.77067345
H        2.58380823       2.25690216       1.96455666
H        1.60287104       2.36793760       0.48048620
H        3.18027577       3.18128951       0.56514955
H        5.43558154       2.54499704      -0.47008658
H        5.94869794       0.91670398      -0.92007931
H        6.72434947       1.71647257       0.48175309
