15
Properties=species:S:1:pos:R:3 -1568.2155448333237=T 10.763133=T 11.57423=T -10.0497=T -8.0785=T -10.636=T 0.2612=T -1.5037=T -0.646=T 10.06408=T 1.1947=T 4.1820725772=T 5.7484993026=T 0.420353342=T pbc="F F F"
C        6.66250706      -0.10681929       1.26329612
C        5.16580810      -0.20816835       1.49988598
O        4.41752260       0.05144257       0.27661942
C        4.13528537       1.36452446       0.02225305
O        4.45433073       2.29026436       0.75032664
C        3.38740378       1.48264269      -1.25653626
C        3.01488475       2.67926988      -1.72619109
H        7.19955526      -0.38860247       2.18044065
H        6.94775839       0.92029679       1.00131844
H        6.97905257      -0.78353451       0.45772270
H        4.83344319       0.50226983       2.26903612
H        4.86860722      -1.22650529       1.78382221
H        3.16391044       0.55431893      -1.78531867
H        3.25884853       3.58602947      -1.16925579
H        2.46672201       2.77782092      -2.66309952
