16
Properties=species:S:1:pos:R:3 -1581.7719506104186=T 10.158834=T 11.03502=T -9.3946=T -7.3479=T -10.483=T 0.6728=T -0.358=T 0.207=T 10.22975=T 0.4001=T 4.3073480316=T 11.9831725084=T 0.200719311=T pbc="F F F"
C        0.19687363      -1.70658660       0.65008667
N        1.31007437      -1.21081928      -0.16542948
C        2.00351586      -2.31204670      -0.84730710
C        2.25070495      -0.37165078       0.58769810
C        2.83639277       0.73644529      -0.30402312
O        2.11153428       0.93146267      -1.42893178
O        3.81600508       1.38779093      -0.01085499
H        0.52978278      -2.39327085       1.45398169
H       -0.51122456      -2.24817244       0.00778344
H       -0.33330153      -0.86062007       1.10725806
H        1.29630718      -2.84660830      -1.49593289
H        2.44207898      -3.03526099      -0.13106507
H        2.81091036      -1.91280757      -1.47599737
H        3.08157082      -0.93402444       1.04957266
H        1.71367740       0.13972763       1.40079825
H        1.40536764       0.22075152      -1.36297708
