15
Properties=species:S:1:pos:R:3 -1575.4240450621273=T 11.874115=T 13.90139=T -9.3761=T -7.1596=T -9.314=T 0.8297=T -0.0089=T 2.086=T 8.91023=T -1.61556=T 4.1376483934=T 10.1032223848=T 0.553381421=T pbc="F F F"
C        0.95089046      -0.00585435       0.03272930
C        2.40374508       0.02835157       0.00846519
C        3.61991149       0.05172381      -0.02429668
C        5.05664218       0.07433659      -0.02509046
O        5.74737750      -0.54030708      -1.15355160
C        5.83985656       0.88704723      -0.98989339
C        7.19077953       1.45398297      -0.64727072
H        0.52591023       1.00768447      -0.02092206
H        0.57950390      -0.48059845       0.95296687
H        0.56024006      -0.57877079      -0.82154539
H        5.53112550      -0.13938344       0.94108707
H        5.25455970       1.44817386      -1.73009431
H        7.68867528       0.84677155       0.12050577
H        7.09090776       2.48470512      -0.27597454
H        7.83315477       1.47661694      -1.53963507
