17
Properties=species:S:1:pos:R:3 -1678.3148310915155=T 10.60226=T 12.07829=T -9.7447=T -7.5212=T -11.108=T 0.7958=T -0.2489=T 2.822=T 10.79585=T -2.50212=T 8.774675199=T 10.5624169344=T 0.185228537=T pbc="F F F"
C        1.00123018      -0.03657934       0.11347865
C        2.50868771      -0.04501413      -0.00142295
C        3.19861079      -0.64641984      -1.19787637
O        2.37714357      -1.21980782      -2.19207347
C        3.21831168       0.85816915      -1.00026266
C        4.49679874       1.56682890      -0.63149958
O        5.32067014       1.88488287      -1.76397349
H        0.65993569       0.81882468       0.71501929
H        0.63968894      -0.95680531       0.59639747
H        0.53049615       0.02383980      -0.87603207
H        3.03967877      -0.19391478       0.94413972
H        4.13028216      -1.19548016      -1.00600907
H        2.76234447      -1.00232791      -3.05864722
H        2.55446426       1.41159153      -1.67164979
H        5.05894422       0.96246129       0.10722059
H        4.27723461       2.53606689      -0.15795553
H        5.52503793       1.04634417      -2.21486352
