19
Properties=species:S:1:pos:R:3 -1870.3439789742936=T 12.799748=T 13.89904=T -8.0269=T -5.9929=T -8.577=T 0.9053=T 0.0296=T 1.45=T 8.05873=T -0.81326=T 5.828023923=T 0.286430658=T pbc="F F F"
C        1.62444052      -0.39823060       1.52250307
C        2.30690188      -0.05382940       0.18861691
C        2.61673600       1.41320580       0.01034363
C        1.46921749       2.38233277      -0.06662399
C        3.89722005       1.80972984      -0.10106631
O        4.25969391       3.11884309      -0.32315914
C        5.64503938       3.38370941      -0.10187215
H        1.43799379      -1.47950149       1.59785777
H        0.65553447       0.11092879       1.62797959
H        2.25501497      -0.10023193       2.37333903
H        1.65388518      -0.38778633      -0.63936932
H        3.23819385      -0.63617585       0.09720798
H        0.80014276       2.12899607      -0.90654617
H        1.82198882       3.41068836      -0.20718002
H        0.85382604       2.35369652       0.84694776
H        4.72806786       1.09540500      -0.05540487
H        5.81703315       4.42495001      -0.39888646
H        6.28177760       2.72270362      -0.71540796
H        5.91218225       3.25879633       0.96166064
