17
Properties=species:S:1:pos:R:3 -1702.4531966741274=T 10.524432=T 11.66223=T -9.0841=T -7.0302=T -10.558=T 1.0655=T -0.6991=T 0.176=T 9.67718=T 0.56216=T 3.7556847232=T 7.9667948216=T 0.133068141=T pbc="F F F"
C        2.52461272      -1.04865964       0.78554150
C        2.01410292       0.36445686       0.60968339
O        0.82231342       0.63545196       0.64534946
C        3.06548279       1.47870294       0.33796748
C        3.11121216       1.69016353      -1.18109142
C        2.67684889       2.76273736       1.07263679
O        4.39105608       1.04901835       0.71250866
H        3.30397668      -1.28659761       0.04943716
H        1.68431143      -1.74798926       0.71897758
H        3.00056323      -1.15000132       1.77327023
H        3.43002014       0.77119499      -1.69221415
H        3.83724055       2.48139606      -1.41392535
H        2.12183089       1.98077286      -1.55584105
H        2.70384652       2.61336919       2.16386882
H        1.65512271       3.06167297       0.80821448
H        3.37656784       3.56768430       0.81020835
H        4.47895103       1.16469647       1.67497807
