18
Properties=species:S:1:pos:R:3 -1745.3570926193452=T 11.178611=T 12.65704=T -9.4767=T -7.2465=T -10.821=T 0.8194=T -0.12=T 2.805=T 10.26193=T -2.56816=T 8.51039904=T 11.6007872858=T 0.103921631=T pbc="F F F"
C        2.63107001      -0.95692570      -0.69029754
C        2.07268075       0.28196613       0.01797750
C        3.15044259       1.22185367       0.50713069
N        3.82819741       2.14648622      -0.44221198
C        2.91547698       2.68521238       0.59814888
C        3.62094197       3.55938475       1.62308480
O        4.97754592       3.17206428       1.79190835
H        1.82170000      -1.61510853      -1.03607461
H        3.27334071      -1.54136874      -0.01501109
H        3.23772889      -0.67926647      -1.56500648
H        1.46108783      -0.03015201       0.88165639
H        1.39253510       0.83037402      -0.65727085
H        3.85555323       0.79162707       1.22746990
H        3.35930846       2.12389676      -1.35365857
H        1.93315270       3.04601842       0.27315341
H        3.12363304       3.47811926       2.60337971
H        3.54823850       4.61705914       1.29701893
H        5.26041591       2.89366933       0.89201254
