20
Properties=species:S:1:pos:R:3 -1938.5381234461472=T 13.44427=T 14.63795=T -8.5771=T -6.4571=T -8.745=T 0.8648=T -0.0439=T 1.496=T 8.17004=T -0.80667=T 6.0850345024=T 0.384320066=T pbc="F F F"
C        0.89955848       0.87032802      -1.24357547
N        2.35773208       0.87830785      -1.17105830
C        2.85923103       1.61863887      -0.00488590
C        4.35884325       1.62705054       0.01537370
C        5.18378129       2.69214758       0.04334950
C        4.73607137       4.13054536       0.06788099
C        6.67914342       2.50392450       0.06721253
H        0.57817029       0.36998616      -2.16774936
H        0.43388469       1.87940138      -1.21297968
H        0.49472906       0.29451750      -0.39636340
H        2.74151967       1.30945044      -2.01593143
H        2.48952322       1.08780722       0.89300394
H        2.44573306       2.64740573       0.05700734
H        4.81229432       0.62977010      -0.00955237
H        3.65170620       4.24952649      -0.04191251
H        5.22861993       4.69974778      -0.73754926
H        5.03406785       4.61256909       1.01400915
H        6.95809201       1.44220166       0.04435027
H        7.11905895       2.95625697       0.97185316
H        7.15284982       3.00587676      -0.79291289
