13
Properties=species:S:1:pos:R:3 -1339.0142249136302=T 11.413138=T 11.40342=T -9.4094=T -7.4028=T -10.063=T -0.1099=T -1.9117=T -0.648=T 10.11565=T 1.0457=T 3.6414192256=T 5.6114699754=T 0.679179374=T pbc="F F F"
C        5.53054110      -0.89267644      -0.24344943
N        5.33585281       0.22725938      -0.83909791
N        4.65863580       1.14804902       0.00045988
C        4.49388106       2.28111924      -0.58860215
C        3.83397565       3.41724513       0.12561019
C        4.87188096       4.38815933       0.69081575
O        4.92107086       5.57004257       0.42238264
H        6.04373264      -1.67831668      -0.80318269
H        5.20171357      -1.07628189       0.78906602
H        4.86984549       2.44069099      -1.61088167
H        3.27220968       3.01389580       0.98364537
H        3.16396334       3.97840513      -0.53942360
H        5.60000705       3.91744841       1.39749759
