19
Properties=species:S:1:pos:R:3 -1808.6336466878563=T 11.791888=T 12.79412=T -8.6472=T -6.4614=T -10.163=T 0.8618=T -0.1037=T 2.919=T 9.49366=T -2.57208=T 8.2585090824=T 9.9001209182=T 0.061127521=T pbc="F F F"
C        0.95567286      -0.08343748       0.22222305
C        2.44605257      -0.03604107      -0.11657739
C        2.70605545      -0.07033276      -1.62151753
N        2.16373327       1.12167207      -2.29267594
C        3.20799209       1.05879540       0.68769768
N        3.58254408       0.02653026       1.69600302
C        3.27296562      -1.05590024       0.72325354
H        0.81328935      -0.09564684       1.31204231
H        0.48441162      -0.98798100      -0.19520922
H        0.42593239       0.79805679      -0.17049517
H        2.31831981      -1.03269782      -2.02188366
H        3.79537065      -0.07455556      -1.78934208
H        1.14299124       1.07208606      -2.32978766
H        2.48004056       1.14670348      -3.26391859
H        2.61156398       1.89134862       1.09387081
H        4.05220932       1.47408638       0.10799431
H        4.55707781       0.05973572       2.00164381
H        4.14712937      -1.43775329       0.16130506
H        2.72673797      -1.91116871       1.15495365
