12
Properties=species:S:1:pos:R:3 -1241.2586559474562=T 9.013537=T 8.99148=T -9.2025=T -7.1834=T -9.588=T 0.39=T -1.376=T 0.196=T 9.2754=T 0.39006=T 4.366724927=T 8.8057088948=T 0.310103488=T pbc="F F F"
C        0.29879111      -1.40385176       0.25188393
C       -1.07922789      -0.95107498      -0.24565500
C       -1.24060676       0.48080329       0.18964510
N       -0.25707844       1.31200915       0.26594907
N        0.98402232       0.90018718      -0.27817134
C        1.27970718      -0.35258084      -0.19371074
H        0.58347000      -2.38424746      -0.15218966
H        0.30084957      -1.49108403       1.35377781
H       -1.89049017      -1.56634308       0.16505537
H       -1.13549752      -1.02814644      -1.34681348
H       -2.20937555       0.85142190       0.54309508
H        2.27795615      -0.63402293      -0.54693615
