17
Properties=species:S:1:pos:R:3 -1695.350947992085=T 10.274715=T 11.29875=T -9.5173=T -7.358=T -11.367=T 0.9097=T -0.0748=T 2.8=T 10.79849=T -2.53501=T 9.0746841232=T 10.5798741632=T 0.107811636=T pbc="F F F"
O        1.03494252      -0.02873797       0.19027391
C        2.46475807       0.00781441       0.05339694
C        2.91084527      -1.35744111      -0.48055644
C        2.52818294      -1.51000143      -1.95838877
C        3.02275100      -0.30952240      -2.76209431
O        2.52124750       0.92896810      -2.23741269
C        2.93889743       1.11725875      -0.88852833
H        0.69157032       0.86909338       0.04199278
H        2.92814174       0.19031646       1.04433642
H        2.45549451      -2.14918704       0.13238054
H        4.00476737      -1.43892600      -0.36016795
H        2.95649381      -2.43392546      -2.37801902
H        1.43370563      -1.57729410      -2.05029250
H        4.13358612      -0.28064161      -2.76489150
H        2.67918713      -0.34972069      -3.80521058
H        4.04711264       1.17733322      -0.82976023
H        2.53488601       2.09485349      -0.57726828
