15
Properties=species:S:1:pos:R:3 -1540.1563727435407=T 12.534642=T 12.00215=T -7.6029=T -5.7777=T -8.218=T 0.3981=T -1.1774=T -0.2=T 7.69275=T 0.67243=T 4.1378963654=T 0.32853195=T pbc="F F F"
C        1.11913313       0.00625864      -0.22312222
N        2.56697103      -0.04413207      -0.30480288
C        3.27295331      -1.22450386       0.23877018
C        4.61539792      -0.64340682       0.63812647
C        5.74392920      -1.30005990       0.97467548
C        4.39363439       0.79200934       0.54978704
N        3.22177248       1.10522701       0.06109065
H        0.69204089      -0.81458751      -0.81499479
H        0.78337786       0.96144234      -0.64285675
H        0.75016612      -0.07600814       0.81820773
H        3.33913556      -2.02886593      -0.50755206
H        2.72951854      -1.61282660       1.12292289
H        5.79337048      -2.38880275       0.99886271
H        6.64950727      -0.75285853       1.23776346
H        5.10545184       1.57410478       0.80787208
