17
Properties=species:S:1:pos:R:3 -1606.844134121905=T 11.470601=T 12.18437=T -9.3296=T -7.165=T -10.558=T 1.5804=T -0.2148=T 0.476=T 10.10619=T 0.13022=T 5.5170174406=T 6.589793907=T 0.184826605=T pbc="F F F"
C        0.73898864      -0.50054937      -0.28606077
C        2.20909189      -0.12834301      -0.05725048
N        3.17856040      -1.02065579      -0.71859589
C        2.51189333       1.31735790      -0.50760277
C        1.78370317       2.35582773       0.28109684
N        0.97538862       3.16199525      -0.30328902
O        0.39942537       4.06781003       0.62812584
H        0.05675302       0.17844839       0.24743749
H        0.53900955      -1.52491312       0.06121433
H        0.48959386      -0.44834374      -1.35813428
H        2.42203920      -0.19225121       1.02534983
H        2.99484180      -1.02788869      -1.72777889
H        3.02288936      -1.98244477      -0.40416402
H        2.26297973       1.43976516      -1.57428200
H        3.59808503       1.47209138      -0.39811529
H        1.94905695       2.42286804       1.36729394
H       -0.16897991       4.60897584       0.05125516
