12
Properties=species:S:1:pos:R:3 -1380.8110609145153=T 12.314841=T 13.13169=T -9.8097=T -7.7538=T -9.598=T 0.3784=T -1.3706=T 0.176=T 9.37748=T 0.15363=T 3.5246244136=T 7.5412128766=T 1.287340384=T pbc="F F F"
N        0.97895060       0.04972485      -0.11270339
C        2.15411387       0.03204492      -0.08152864
C        3.51528169       0.01090768      -0.04479945
C        4.73799093      -0.00841999      -0.01124099
C        6.15977711      -0.03156713       0.02906667
C        6.94136480      -0.74722749      -1.07359278
C        6.96562067       0.74752523      -1.01126495
H        6.58829464      -0.08030080       1.03283375
H        6.35347959      -1.21850668      -1.86004708
H        7.82283512      -1.30176326      -0.75337980
H        7.86436487       1.24405590      -0.64688286
H        6.39505611       1.30165678      -1.75530047
