18
Properties=species:S:1:pos:R:3 -1746.1853228399295=T 11.207876=T 12.59069=T -9.2321=T -7.0187=T -10.718=T 0.8819=T -0.1052=T 2.999=T 10.10638=T -2.76397=T 8.713364122=T 10.1771056422=T 0.103059515=T pbc="F F F"
C        0.94745401      -0.10610298       0.31010433
C        2.36538943       0.15168200      -0.15509223
C        3.20307478       1.19003029       0.62327772
C        4.13931695       0.00742835       0.95533120
C        5.55038671       0.04980004       0.38513552
N        6.38110718       0.96924337       1.17602484
O        3.28468880      -0.92635171       0.22421197
H        0.54897321      -1.01679014      -0.15945207
H        0.29579900       0.73632530       0.03113759
H        0.91055344      -0.23407104       1.40158756
H        2.38603636       0.29376886      -1.25108213
H        2.68952722       1.63685473       1.48432126
H        3.65112521       1.98587853       0.01193397
H        4.19191077      -0.25041791       2.02705361
H        5.49031301       0.28664724      -0.69681049
H        5.97663691      -0.96235388       0.47000828
H        6.12146984       1.93866990       0.97586565
H        7.36140719       0.87764908       0.90382342
