11
Properties=species:S:1:pos:R:3 -1197.8709985343917=T 10.674974=T 10.67478=T -9.5425=T -7.6039=T -9.945=T -0.8903=T -2.595=T -1.206=T 9.45606=T 1.77083=T 4.9266952974=T 6.8734366792=T 0.351016746=T pbc="F F F"
O        0.89886498       0.20493478       0.38020991
N        2.27263438      -0.04113418       0.29126970
C        2.92911141       1.05568205       0.13941221
C        4.39811084       1.02672734       0.02311334
C        5.16289141      -0.08882769       0.06222050
C        5.02134677       2.30969372      -0.14365822
N        5.50910326       3.36328200      -0.27855054
H        0.53266378      -0.69226895       0.49038516
H        2.41963965       2.02544981       0.09336048
H        4.69847418      -1.06557744       0.18830356
H        6.24490933      -0.02674142      -0.03098611
