15
Properties=species:S:1:pos:R:3 -1505.1216583304513=T 12.433516=T 12.64039=T -8.6902=T -6.7506=T -9.3=T 1.1023=T -0.6899=T 0.597=T 8.83485=T -0.00695000000002=T 4.7764862584=T 6.3685160928=T 0.608424291=T pbc="F F F"
C        1.47582260      -0.39441370      -0.11840965
C        1.80220122       0.69762484      -0.82265709
C        3.17477239       1.21952298      -0.93969679
C        3.69147997       1.88220888      -2.16752216
N        3.30827854       2.72486631      -1.01359257
N        4.49898989       3.11401619      -0.28982218
C        4.29274124       4.16256298       0.41173739
H        0.44793391      -0.75446891      -0.07283999
H        2.22845623      -0.96462034       0.43117200
H        1.03002137       1.25599111      -1.36125243
H        3.93545287       0.73669567      -0.31980556
H        3.04257943       2.00532505      -3.03650702
H        4.76111998       1.78982221      -2.36577032
H        5.12993306       4.54074897       1.00436239
H        3.32389731       4.68083779       0.43521400
