19
Properties=species:S:1:pos:R:3 -1867.5735238587088=T 12.686462=T 13.94471=T -9.0208=T -6.846=T -8.795=T 0.9537=T 0.0155=T 1.478=T 8.2193=T -0.80546=T 6.1099308912=T 0.402925073=T pbc="F F F"
C        1.95215016       0.27798105       0.88313584
O        3.34677919       0.51740381       0.97998673
C        3.82956831       1.27049186      -0.13956080
C        5.32271459       1.43853666      -0.04023080
C        6.10711345       0.15550849      -0.00633587
C        5.84629698       2.67888860      -0.01236988
C        7.29150869       3.07053168       0.03036064
H        1.65987070      -0.30058047       1.76883689
H        1.69922567      -0.30087291      -0.02656478
H        1.37574785       1.22330478       0.86469020
H        3.32912144       2.25799597      -0.17833134
H        3.57117993       0.72682240      -1.07538843
H        5.91872577      -0.43734938      -0.91718073
H        5.78094394      -0.46273925       0.84331327
H        7.18806305       0.31647263       0.07756715
H        5.13873057       3.51634599      -0.02652081
H        7.97196002       2.21018120       0.01377069
H        7.51019446       3.65567615       0.93841168
H        7.54597524       3.71843072      -0.82413966
