15
Properties=species:S:1:pos:R:3 -1550.820545306132=T 10.751541=T 11.42498=T -8.8476=T -6.8864=T -9.937=T 0.8258=T -0.1038=T 1.118=T 9.24475=T -0.47779=T 5.0646545196=T 6.4335591484=T 0.124503293=T pbc="F F F"
N        1.08298883       0.01391321       0.01557777
C        2.35939887       0.00326807       0.08114071
N        3.28547152      -1.06522685       0.27032592
C        4.58410722      -0.36040258       0.05578706
C        4.28982727       0.61492303      -1.12216733
C        3.28333038       1.19923417      -0.06375640
C        4.38321387       0.85355659       0.99679209
H        0.70367171      -0.93825126       0.12522997
H        3.12325972      -1.88005577      -0.32307881
H        5.45481783      -1.02434814       0.10402092
H        3.87338597       0.19456485      -2.04914557
H        5.11655294       1.30541891      -1.33788683
H        2.80466655       2.17848394      -0.15250968
H        5.22129485       1.56086767       0.96596845
H        4.06419247       0.64454416       2.02640173
