14
Properties=species:S:1:pos:R:3 -1298.78855559911=T 8.254236=T 8.85135=T -9.6298=T -7.317=T -10.819=T 0.8319=T -0.1935=T 3.07=T 10.17137=T -2.80974=T 8.718137583=T 11.0613985914=T 0.108021227=T pbc="F F F"
C        0.87710539      -0.01773133      -0.00242664
C        2.39628916       0.01232946      -0.03041480
O        2.84724990      -0.55363801      -1.26175046
C        2.96198468       1.43171550       0.10962997
N        4.41708618       1.38474397      -0.12273250
H        0.49455787       0.37673560       0.95037260
H        0.51596114      -1.04820175      -0.11874282
H        0.46744476       0.58423923      -0.82705757
H        2.78175136      -0.59461122       0.81989413
H        3.75914871      -0.19841944      -1.35883827
H        2.67116187       1.85811613       1.08873411
H        2.51658661       2.05941016      -0.67884787
H        4.90654835       1.07747459       0.72120668
H        4.78159402       2.30893712      -0.35590656
