19
Properties=species:S:1:pos:R:3 -1875.3120050817513=T 11.793444=T 13.44505=T -9.8165=T -7.6325=T -11.102=T 0.9252=T 0.0052=T 2.886=T 10.74006=T -2.53858=T 9.0200558916=T 11.0917007698=T 0.202363245=T pbc="F F F"
C        3.06890352      -1.19332570      -0.46721757
C        2.45807208       0.06874113       0.14183900
O        1.93080953      -0.19252723       1.46022351
C        3.42841025       1.23189419       0.13856834
C        3.48565893       2.16977841      -1.05180494
C        2.92851293       2.64886215       0.26941222
C        3.68674517       3.65901556       1.10011439
H        3.38827833      -1.01380143      -1.50417895
H        2.34133041      -2.01584587      -0.45770687
H        3.95584850      -1.50992928       0.10550593
H        1.56683519       0.35680300      -0.44186726
H        2.68374112      -0.42916084       2.03193773
H        4.39108404       1.01721780       0.61902669
H        2.79036932       1.98922965      -1.87411292
H        4.46270217       2.54524506      -1.36123369
H        1.83945864       2.74319545       0.31335884
H        4.77277399       3.49949986       1.01909065
H        3.41496274       3.58402722       2.16396569
H        3.47726314       4.68803088       0.77005921
