17
Properties=species:S:1:pos:R:3 -1751.135247499418=T 11.72551=T 12.73317=T -7.8616=T -5.8954=T -8.625=T 0.881=T -0.0226=T 1.459=T 8.10879=T -0.81599=T 5.9045356836=T 0.372631624=T pbc="F F F"
C        1.08555042      -0.13148947       0.34017299
C        2.35565444       0.16434377      -0.39913710
C        3.03803811       1.31783805      -0.32795817
C        2.74166874       2.57072140       0.46898610
C        3.61139228       3.62858624      -0.23033058
C        4.78046354       2.78001127      -0.72672569
O        4.20268474       1.49993200      -1.06443036
H        1.20787222      -0.98681350       1.02582562
H        0.26811709      -0.40002004      -0.34946215
H        0.74472699       0.72156145       0.94322392
H        2.76336439      -0.61968944      -1.04256901
H        3.05666403       2.43951454       1.51801168
H        1.67356661       2.82258979       0.47293151
H        3.07154330       4.06350836      -1.08471648
H        3.92849756       4.44382905       0.43330568
H        5.27198023       3.16830570      -1.62871757
H        5.54148532       2.63744083       0.06243961
