14
Properties=species:S:1:pos:R:3 -1485.3241309578982=T 12.061566=T 11.71402=T -8.6134=T -6.6497=T -8.477=T 0.3144=T -1.2577=T 0.083=T 7.88569=T 0.48545=T 4.9816706898=T 0.489905989=T pbc="F F F"
C        2.79554678      -0.75462784      -0.86334466
C        2.19692258       0.35003882      -0.38341054
C        2.86796169       1.59710052       0.00314466
C        2.13122777       2.67351411       0.36850999
C        4.34557538       1.63890660       0.01694271
C        5.09132268       2.66889783      -0.40946778
H        2.21304396      -1.63805814      -1.12517373
H        3.87418824      -0.80970353      -1.01955744
H        1.10801614       0.35222434      -0.26727088
H        1.04052198       2.64040216       0.34544825
H        2.60207927       3.59590482       0.70836880
H        4.84833150       0.74521398       0.40170355
H        4.63700485       3.56014406      -0.84781432
H        6.17969718       2.64336228      -0.34351863
