15
Properties=species:S:1:pos:R:3 -1453.4100937368128=T 10.971393=T 11.68486=T -8.823=T -6.798=T -10.415=T 1.2563=T -0.5756=T 0.623=T 10.30363=T -0.05341=T 4.757466806=T 6.9930335748=T 0.638102493=T pbc="F F F"
O        2.15535469      -0.82073223       0.21019875
C        1.84598709       0.57100897       0.04759512
C        3.14514914       1.31043324      -0.13687210
C        3.75549479       1.52486937      -1.46520791
N        3.01223627       2.63747449      -0.80424454
N        3.96124390       3.56137611      -0.21846860
C        3.51301217       4.75796130      -0.23531153
H        1.32859035      -1.28603489       0.42032666
H        1.32340408       0.96893769       0.93761419
H        1.20168293       0.74444803      -0.83294067
H        3.83618005       1.28473520       0.70960117
H        3.26704340       1.14809790      -2.36541181
H        4.84036354       1.63409902      -1.50691433
H        4.15349379       5.53856872       0.18391142
H        2.52841380       5.01739706      -0.64950583
