13
Properties=species:S:1:pos:R:3 -1396.1873313468154=T 10.567611=T 10.80112=T -9.8245=T -7.7282=T -9.691=T 0.1637=T -1.5643=T 0.073=T 9.37002=T 0.52046=T 4.8376113564=T 6.6450420686=T 0.23962456=T pbc="F F F"
C        1.47892077      -0.37131110      -1.11283464
C        2.12112952       0.03938740      -0.01440164
C        3.19811731       1.09787359       0.02060245
C        2.76718211       2.44661038       0.53891330
N        3.06697337       3.41559273      -0.25871534
N        3.73603717       2.85232871      -1.42330115
C        3.78869011       1.57083539      -1.27299459
H        0.69707390      -1.12852623      -1.05022663
H        1.70286327       0.03235885      -2.10195691
H        1.85668843      -0.38915254       0.95701801
H        4.02739557       0.73946318       0.66640421
H        2.25656504       2.62946960       1.48585376
H        4.26161342       0.93527004      -2.02386082
