13
Properties=species:S:1:pos:R:3 -1394.5791220309304=T 10.096038=T 11.02704=T -10.1769=T -7.9264=T -10.313=T 0.5015=T -1.4974=T -0.379=T 10.36879=T 1.01462=T 3.6872444512=T 11.1376499814=T 0.306466658=T pbc="F F F"
O        1.18362172      -0.00109121       0.47579872
C        2.51716348       0.04458815       0.03450309
C        2.60834327      -0.40663822      -1.45114433
C        3.97559098      -0.55779493      -1.92695763
C        5.12625635      -0.68327955      -2.29249715
C        3.09318639       1.43366803       0.22201421
O        2.43121577       2.32312390       0.73289302
H        1.00143125       0.90155658       0.82475168
H        3.15490681      -0.64318177       0.62968328
H        2.05440422       0.31184244      -2.07665024
H        2.07381270      -1.36635843      -1.52299524
H        6.13594035      -0.79515327      -2.63204086
H        4.13754671       1.59792828      -0.12541855
