11
Properties=species:S:1:pos:R:3 -1242.112121778571=T 10.847923=T 10.42917=T -9.1074=T -7.3323=T -9.619=T -0.4077=T -2.1526=T -1.463=T 9.47416=T 2.14099=T 3.338385043=T 4.3086870804=T 0.4528862=T pbc="F F F"
N        0.96589127      -0.03175345       0.00533292
C        2.31480830       0.02026013      -0.05753297
C        3.07945296       1.15057777       0.03424466
C        4.51886453       1.11986013      -0.04176913
O        5.26563479       2.09778552       0.03250663
C        5.13430216      -0.22333179      -0.22600864
N        5.65363917      -1.25968574      -0.36973504
H        0.47501285      -0.91316110      -0.07223207
H        0.41098682       0.80780831       0.13264384
H        2.80187190      -0.94935171      -0.19451565
H        2.63299526       2.13761193       0.17041545
