17
Properties=species:S:1:pos:R:3 -1641.9361417972561=T 11.156895=T 12.29528=T -8.6559=T -6.6624=T -9.681=T 0.8787=T -0.0469=T 1.032=T 8.88493=T -0.47647=T 5.2759514608=T 6.0825919782=T 0.16168506=T pbc="F F F"
C        2.52698543      -1.23531674      -0.17237933
C        3.86592506      -0.52884151      -0.08364394
O        3.61387414       0.88617954      -0.05738699
C        4.72526007       1.71041858      -0.00407834
N        5.97080840       1.39754570       0.02115546
N        4.29480836       3.01611657       0.04990484
C        5.24673792       4.09960556      -0.12912985
H        2.68205045      -2.32280123      -0.19265184
H        1.99103954      -0.94512594      -1.08611882
H        1.89789800      -0.99116317       0.69410744
H        4.50001080      -0.77462994      -0.95342503
H        4.40512919      -0.82338929       0.83369625
H        6.11813566       0.38719405       0.04705230
H        3.34470734       3.16088224      -0.27755941
H        6.07451010       3.97162244       0.57891936
H        4.74069956       5.05032311       0.07957746
H        5.67603996       4.12924004      -1.14546954
