17
Properties=species:S:1:pos:R:3 -1684.8434354433086=T 11.343935=T 11.97032=T -8.2095=T -6.2255=T -8.979=T 1.0761=T -0.089=T 0.773=T 8.49993=T -0.15429=T 5.1261763728=T 5.2485505548=T 0.138346575=T pbc="F F F"
C        1.03063703      -0.06864661       0.00962832
C        2.55932244      -0.00858348      -0.00260540
N        3.16458916      -1.12473770      -0.77853986
N        3.38758139      -0.71010591      -2.09014190
C        3.37521461       0.58177366      -2.11621182
C        3.11620966       1.22120350      -0.76875982
C        4.40411117       1.79870768      -0.15661809
H        0.61293060       0.78142113       0.57028592
H        0.67435169      -0.99156085       0.49116115
H        0.63180521      -0.03508186      -1.01519241
H        2.94689400      -0.03543426       1.02844534
H        2.63992712      -2.00044222      -0.77228714
H        3.61324675       1.11117178      -3.03878908
H        2.35594881       2.01777852      -0.83152677
H        5.17424716       1.01907437      -0.06908212
H        4.21128268       2.21028228       0.84533221
H        4.80876051       2.60772997      -0.78151854
