13
Properties=species:S:1:pos:R:3 -1467.4782020254452=T 12.646755=T 13.28796=T -9.2085=T -7.1785=T -8.866=T 0.4455=T -1.1691=T 0.423=T 8.34139=T 0.14683=T 4.0671499538=T 6.011647189=T 0.456615934=T pbc="F F F"
C        0.97955240       0.29907359       0.25686208
C        2.29407499       0.12269291       0.01872985
C        2.90825968      -1.27442332      -0.07312959
C        3.42111207      -1.59695173      -1.40065226
C        3.83626423      -1.86870763      -2.50763895
C        3.18580797       1.22099001      -0.14087230
C        3.98874117       2.12548808      -0.27220230
H        0.54955978       1.29706362       0.33314603
H        0.31402655      -0.55658120       0.37636771
H        2.14764114      -2.01499941       0.21945248
H        3.72974476      -1.35096568       0.65930196
H        4.20753110      -2.10386974      -3.48396210
H        4.68484415       2.93006048      -0.39285261
