15
Properties=species:S:1:pos:R:3 -1593.9365808982852=T 11.384691=T 12.87607=T -9.4792=T -7.378=T -9.909=T 1.0937=T -0.7464=T 0.113=T 9.73566=T 0.63038=T 3.728692971=T 10.7048396526=T 0.506041935=T pbc="F F F"
C        1.31276481      -0.85641723      -0.05238618
C        2.82219183      -0.73438896       0.01858519
O        3.54827044      -1.71389663       0.10863534
C        3.38331707       0.68138753      -0.03067212
C        4.91612210       0.72617309       0.03898563
C        5.43787580       2.08553494      -0.00629558
C        5.85287973       3.22597058      -0.04605921
H        0.84185450      -0.28387212       0.76071634
H        1.01950406      -1.90941262       0.01625742
H        0.94168247      -0.42970515      -0.99660013
H        2.93975889       1.26211627       0.79568339
H        3.02136468       1.16960593      -0.95129657
H        5.33663557       0.13472704      -0.78947380
H        5.25414013       0.22444558       0.95929923
H        6.22956792       4.22765174      -0.08047894
