11
Properties=species:S:1:pos:R:3 -1227.8398315050813=T 10.584156=T 11.34465=T -10.421=T -8.2239=T -9.956=T 0.4868=T -1.3181=T 0.175=T 9.54014=T 0.16447=T 3.5895930776=T 7.8406018708=T 1.124047444=T pbc="F F F"
C        0.98249433      -0.04966879       0.00364672
C        2.52086902       0.02850188       0.00014622
C        3.02453713       1.38841988       0.00004204
C        3.42789655       2.54075800      -0.00003744
C        3.87984226       3.82725790      -0.00014086
N        4.26781760       4.93625874      -0.00021220
H        0.66432365      -1.10020137       0.00396836
H        0.56432379       0.44078732      -0.88450637
H        0.56841282       0.44008663       0.89410014
H        2.92549366      -0.49400315      -0.88289720
H        2.92956918      -0.49536704       0.88050058
