17
Properties=species:S:1:pos:R:3 -1756.4053330263557=T 11.434947=T 12.32239=T -8.9611=T -6.8479=T -8.8=T 0.846=T -0.0762=T 1.329=T 8.23884=T -0.65645=T 5.8807427702=T 0.314137883=T pbc="F F F"
C        0.97804654       0.02441939       0.01248190
C        2.47234745      -0.01471529      -0.02581294
C        3.26409468      -1.10098345      -0.10446096
C        4.72823851      -0.74118514      -0.06704823
C        4.72350237       0.77969992      -0.36626658
O        4.95831011       1.04601313      -1.75814597
C        3.31411369       1.24235427       0.07277232
H        0.54217445      -0.98127804      -0.05703356
H        0.57513283       0.63393500      -0.81301228
H        0.61877228       0.48984925       0.94521536
H        2.89928117      -2.12925157      -0.15084793
H        5.16285080      -0.94982514       0.92788945
H        5.34938602      -1.27773941      -0.80128778
H        5.52751356       1.31630505       0.15554508
H        4.27167917       0.56576984      -2.25795484
H        2.95847903       2.06945605      -0.56258983
H        3.32005734       1.61976612       1.11216677
