15
Properties=species:S:1:pos:R:3 -1455.234324064115=T 9.527954=T 10.26795=T -8.8275=T -6.6309=T -10.088=T 0.9585=T -0.9924=T -0.033=T 9.47674=T 0.65521=T 3.6350091494=T 8.223061485=T 0.118976061=T pbc="F F F"
C        2.69626977      -0.81835072      -0.99726269
N        2.51639421      -0.01087481       0.21488392
C        3.03073195       1.34497717       0.09665501
C        2.53261740       2.22960774       1.25522635
C        4.55399409       1.46380870       0.04682642
O        5.32389121       0.57013092       0.34686011
H        2.30155383      -1.82688715      -0.81377347
H        3.74412115      -0.91445973      -1.33782315
H        2.10404665      -0.37737828      -1.81391891
H        3.00296950      -0.46975072       0.99093861
H        2.65071978       1.77779612      -0.84884883
H        2.85743646       1.81187051       2.21951478
H        1.43634359       2.26202609       1.24250179
H        2.92057967       3.25553365       1.18010437
H        4.93981075       2.47369050      -0.26004431
