20
Properties=species:S:1:pos:R:3 -1943.3152370304158=T 13.409288=T 14.68554=T -9.1625=T -6.9273=T -8.994=T 1.0019=T -0.0559=T 1.463=T 8.44309=T -0.80815=T 6.2946204368=T 0.403909833=T pbc="F F F"
C        0.89305685      -0.18349003      -0.01061793
C        2.42844329      -0.10706313      -0.07956438
C        2.96949401      -1.04616963      -1.17201209
C        2.88099039       1.30959910      -0.31564572
C        3.64832291       2.03525906       0.50900383
C        4.08165956       3.44857710       0.24758058
N        3.66358288       4.32475898       1.35769091
H        0.49830941       0.45354012       0.79329606
H        0.56052167      -1.21634347       0.17256289
H        0.44225923       0.14990557      -0.95908850
H        2.83572899      -0.43641211       0.89254407
H        2.59685860      -0.74691492      -2.16469432
H        2.64534384      -2.08224886      -0.99179642
H        4.06785109      -1.02897037      -1.20462402
H        2.54083500       1.76615164      -1.25663122
H        3.98527631       1.60611526       1.46032085
H        3.71455666       3.76205892      -0.75075970
H        5.18457289       3.48747657       0.20794315
H        2.64234964       4.38961737       1.37288018
H        4.01569676       5.27285283       1.20669180
