13
Properties=species:S:1:pos:R:3 -1402.1990970150437=T 10.941314=T 10.53742=T -8.7726=T -6.9346=T -9.076=T 0.118=T -1.4858=T -0.072=T 8.52681=T 0.65845=T 3.8474591604=T 6.1790530862=T 0.472379973=T pbc="F F F"
C        0.88923571      -1.24591996       0.41785637
C       -0.41252422      -1.53475464      -0.26828638
C       -1.40435293      -0.60451210      -0.26124531
C       -1.23739424       0.68752646       0.36353859
N       -0.14465971       1.42170331       0.43108423
N        0.93087110       1.10053877      -0.32634061
C        1.44633437      -0.07783345      -0.36968897
H        1.57113243      -2.10414002       0.41138647
H        0.71752712      -0.92440605       1.45969814
H       -0.54921718      -2.48789133      -0.78491178
H       -2.38407519      -0.85269699      -0.67948848
H       -2.11453285       1.16043741       0.81983672
H        2.27415558      -0.22661140      -1.07040901
