18
Properties=species:S:1:pos:R:3 -1805.9714727719681=T 14.757104=T 15.01947=T -8.204=T -6.2393=T -8.039=T 0.7896=T -0.6763=T 0.435=T 7.60029=T 0.17751=T 4.901476545=T 0.785237439=T pbc="F F F"
C        0.63425037       0.74873369       0.39382926
C        2.10690490       0.56725554       0.57693444
C        3.05504952       1.41620788       0.12825039
C        4.48044730       1.22486481       0.31090161
C        5.43212783       2.07474419      -0.12853384
C        6.90392932       1.87999022       0.07184562
N        7.61420001       1.96116962      -1.21810835
H        0.11218248       0.78624810       1.36418007
H        0.19352586      -0.09644243      -0.16047226
H        0.40521712       1.67336008      -0.15405034
H        2.42713684      -0.33002823       1.12066087
H        2.74504498       2.31767231      -0.41492109
H        4.78893497       0.32076141       0.85188252
H        5.14357230       2.97368031      -0.68542636
H        7.07372482       0.94012488       0.63549391
H        7.29303159       2.70081466       0.70122605
H        7.35496252       1.15996138      -1.79970997
H        8.62342725       1.89865158      -1.06546252
