13
Properties=species:S:1:pos:R:3 -1404.994818127558=T 9.456864=T 10.20551=T -8.4138=T -6.2751=T -8.914=T 1.0106=T 0.0049=T 1.072=T 8.55233=T -0.52925=T 5.6610891726=T 12.3732324644=T 0.211052337=T pbc="F F F"
O        1.27475331       0.00964238       0.95723286
C        2.49470279      -0.00613202       0.25378386
C        2.51157294       0.69434715      -1.08023752
O        3.76736544       1.10675045      -1.62563969
C        4.49198750      -0.05130306      -1.82963147
C        3.83135207      -1.18814319      -1.54721714
C        2.48610630      -0.83633300      -1.01675018
H        1.15785671       0.90112921       1.33318987
H        3.41090417      -0.01977493       0.85558516
H        1.67409287       1.32127844      -1.38686164
H        5.49909628       0.11004636      -2.20661227
H        4.21507073      -2.19488244      -1.68371997
H        1.59477888      -1.42378535      -1.24361187
