18
Properties=species:S:1:pos:R:3 -1750.3764867760983=T 11.637953=T 12.33532=T -9.3535=T -7.0999=T -9.457=T 0.7461=T -0.2398=T 1.399=T 8.9303=T -0.83412=T 6.653584704=T 0.43725527=T pbc="F F F"
N        2.17734331      -0.83181685       1.33939658
C        2.15935681      -0.30649379      -0.04709772
C        3.09691926       0.89718613      -0.17899351
C        4.58356197       0.56338392       0.08910038
O        4.79191622       0.12062438       1.42634050
C        5.12819648      -0.39379417      -0.95039308
C        5.73663963      -1.55246730      -0.67861926
H        1.71962621      -1.74478254       1.38137143
H        1.64723979      -0.21060866       1.95668051
H        1.14503154      -0.02840784      -0.39028456
H        2.51544593      -1.11493971      -0.70464833
H        2.79010214       1.68951217       0.52473814
H        2.99475640       1.31630987      -1.19347777
H        5.15144501       1.50896097      -0.01580111
H        3.99652119      -0.43070689       1.64307108
H        5.01281936      -0.06866387      -1.99218468
H        5.87609544      -1.87140531       0.35610220
H        6.12153332      -2.19347051      -1.47288081
