14
Properties=species:S:1:pos:R:3 -1404.5461636677455=T 9.838816=T 10.62495=T -8.9165=T -6.9523=T -10.388=T 1.1584=T -0.3092=T -0.055=T 9.73957=T 0.64834=T 4.3244580996=T 12.3131364502=T 0.251713725=T pbc="F F F"
O        2.12949812      -0.16764388      -1.72071174
N        1.93122390       0.81531030      -0.72862914
C        0.71204073       0.76782084      -0.13145781
O       -0.16954470      -0.00532254      -0.53056470
C        3.13078408       1.38656171      -0.21318561
C        3.88154870       2.36986614      -1.07890257
C        3.12056232       2.86027590       0.12449410
H        1.22657908      -0.59224074      -1.70636515
H        0.59936070       1.49071737       0.69753943
H        3.72334309       0.71699335       0.41799353
H        3.45685394       2.57461185      -2.06067130
H        4.96925465       2.33425289      -1.03695682
H        3.67244840       3.16127556       1.01430605
H        2.19990699       3.41371125      -0.05620827
