16
Properties=species:S:1:pos:R:3 -1577.138145831738=T 10.377675=T 11.05762=T -9.7789=T -7.559=T -9.656=T 1.2476=T -0.2859=T 1.19=T 9.12818=T -0.63927=T 6.6399586426=T 0.435727878=T pbc="F F F"
C        0.89274475      -0.18028032       0.07908053
C        2.41276660      -0.02405143       0.01081365
O        2.97866854      -0.83922987      -1.02363264
C        2.88045231       1.44679190      -0.13273570
C        2.44151632       2.07564060      -1.42311286
C        3.23870969       2.25894066      -2.48544622
H        0.47444362       0.37851866       0.93017522
H        0.63516500      -1.24085457       0.20073445
H        0.40908168       0.18031649      -0.84105251
H        2.85044434      -0.41774295       0.94295522
H        2.81001946      -0.37791431      -1.86867768
H        3.97928837       1.45603675      -0.07033283
H        2.49031527       2.02220373       0.72327211
H        1.38857001       2.36867341      -1.50052981
H        4.29876883       1.99293214      -2.45153990
H        2.86580521       2.69656912      -3.41292101
