17
Properties=species:S:1:pos:R:3 -1576.9017350684064=T 10.362256=T 11.39024=T -8.6566=T -6.4505=T -9.989=T 1.0251=T 0.1047=T 3.353=T 9.26892=T -3.09197=T 8.160386562=T 11.3822123664=T 0.108742407=T pbc="F F F"
C        1.22444724      -0.21239382       0.83487756
N        2.64811517      -0.02010475       0.57489463
C        2.97262166       1.35903354       0.22202945
C        4.43419907       1.49348399      -0.15931672
O        4.66309000       0.73367657      -1.34757428
C        6.02780105       0.75558428      -1.73656481
H        1.02294342      -1.27751948       1.01408685
H        0.56132402       0.13499849       0.01353085
H        0.93839998       0.33724296       1.74581967
H        2.93808893      -0.61726609      -0.20366386
H        2.78259082       2.00306381       1.09808105
H        2.34743479       1.75340599      -0.61063549
H        5.07505041       1.11256184       0.66037483
H        4.68607040       2.55862050      -0.33419017
H        6.11642968       0.14937983      -2.64702144
H        6.68077879       0.32842324      -0.95202455
H        6.37044456       1.78532909      -1.95458358
