17
Properties=species:S:1:pos:R:3 -1661.369903313304=T 10.920802=T 11.77416=T -8.7445=T -6.8427=T -9.971=T 0.7248=T -0.2458=T 0.739=T 9.58895=T -0.12111=T 4.7298427252=T 12.4318654438=T 0.148791919=T pbc="F F F"
C        2.54277881      -0.37261955       1.60843779
C        2.70772521       0.07572015       0.15573769
N        3.17147702       1.45838898       0.02319924
C        2.20628943       2.53310351       0.19540066
C        4.49977558       1.68111197      -0.28513771
N        4.85315600       3.02652031      -0.46805109
O        5.34067235       0.77969171      -0.34776218
H        2.17523334      -1.40844568       1.64641919
H        1.82308338       0.25583383       2.15412108
H        3.50728941      -0.32861074       2.13206139
H        1.75443524      -0.02078467      -0.39110186
H        3.45283249      -0.55359275      -0.34699608
H        1.78813555       2.88983956      -0.76484805
H        2.65747789       3.38146016       0.72824989
H        1.36979336       2.17132532       0.80708807
H        4.17387799       3.63750224      -0.91493090
H        5.78295695       3.09759564      -0.87290712
