17
Properties=species:S:1:pos:R:3 -1612.4404344861878=T 11.063462=T 11.76455=T -8.6037=T -6.6424=T -10.109=T 0.7101=T -0.2764=T 0.657=T 9.3992=T -0.02329=T 4.8199929458=T 11.4389111642=T 0.181157646=T pbc="F F F"
C        0.99117310      -0.31314788       0.09277367
C        2.48434052       0.01289582      -0.07245251
C        3.10670671      -0.75563835      -1.24981915
C        2.69849806       1.50948855      -0.23034579
N        2.25030453       2.30523370      -1.14673853
N        3.43237014       2.10368517       0.78107819
O        3.77908701       3.44834780       0.51628379
H        0.55854794       0.22377210       0.94761263
H        0.85162540      -1.39170101       0.25295513
H        0.42383261      -0.03232438      -0.80717671
H        2.99836377      -0.29464691       0.85580882
H        2.61239548      -0.49348790      -2.19690633
H        2.99393121      -1.83872615      -1.09973243
H        4.17763031      -0.53355607      -1.35814632
H        1.64815720       1.83406082      -1.82553344
H        4.26465785       1.59610509       1.08835946
H        3.27508816       3.58031961      -0.34266048
