19
Properties=species:S:1:pos:R:3 -1873.200140041389=T 11.719586=T 13.47565=T -9.6877=T -7.6419=T -11.684=T 0.9021=T 0.0252=T 2.702=T 10.85026=T -2.40619=T 9.1796630694=T 10.8595493834=T 0.207424105=T pbc="F F F"
C        1.14421941       0.15381009       0.20785395
C        2.63192142      -0.05853681      -0.10004828
C        2.84366494      -0.68295090      -1.48594383
C        3.38643702       1.25095473       0.00369902
O        3.60649042       1.78175462       1.33223219
C        4.75056383       1.35501232       0.55180751
C        5.72421874       2.42456354       0.13553441
H        1.01021576       0.60111829       1.20247336
H        0.59713817      -0.79994158       0.18206986
H        0.68169632       0.82509585      -0.53354302
H        3.05238814      -0.73513924       0.66447535
H        2.45881736      -0.02236021      -2.27925977
H        2.31092170      -1.64138592      -1.56693626
H        3.90877437      -0.86823692      -1.68820097
H        3.08308174       2.01784814      -0.72669856
H        5.20165251       0.42444109       0.92500450
H        5.19500062       3.30952361      -0.24264867
H        6.39306226       2.04924736      -0.65379241
H        6.34832526       2.73351194       0.98694164
