11
Properties=species:S:1:pos:R:3 -1240.0253285336903=T 10.030817=T 9.69738=T -8.9152=T -7.0759=T -9.521=T -0.934=T -2.6748=T -1.396=T 9.11366=T 1.9298=T 3.9266242214=T 5.92901052=T 0.523501863=T pbc="F F F"
C        1.01103065       0.00922697      -0.15981957
C        2.33781612      -0.03872025       0.05377435
C        3.24511770      -1.15983038       0.22488547
N        4.47894381      -0.76995022       0.41383401
N        4.47795451       0.61061251       0.38166274
C        3.22763223       1.18039103       0.16799510
O        2.95655951       2.37175103       0.09706568
H        0.51390210       0.97577401      -0.26218192
H        0.40588152      -0.89487446      -0.23616959
H        3.00664181      -2.22146085       0.21139852
H        5.35192004       1.11047061       0.51016520
