18
Properties=species:S:1:pos:R:3 -1749.874024321444=T 11.186092=T 12.32695=T -8.7854=T -6.6182=T -10.167=T 0.8388=T -0.1374=T 2.753=T 9.57836=T -2.5105=T 8.0686865164=T 10.8176669126=T 0.069354794=T pbc="F F F"
C        0.90473973       0.01253002       0.02427670
C        2.42354875       0.00203038       0.02204514
C        3.19743403       1.02927248       0.89952208
C        4.24906721      -0.06181247       1.21687066
O        5.38948506      -0.03884877       0.34494819
C        3.18624419      -1.12610858       0.80852657
N        3.69962942      -2.34331223       0.22162910
H        0.49658726      -0.85017081      -0.52530838
H        0.50172446       0.92261919      -0.44627389
H        0.51536017      -0.03103202       1.05399766
H        2.79957210       0.03315639      -1.01569622
H        2.62489258       1.31044421       1.79656479
H        3.57319627       1.95011881       0.42763445
H        4.64811936      -0.12654356       2.23880168
H        5.17419612       0.52326176      -0.41924372
H        2.58783740      -1.37995874       1.70264749
H        4.41136584      -2.11111387      -0.47642397
H        2.96218004      -2.88077221      -0.23748834
