11
Properties=species:S:1:pos:R:3 -1177.4720441901861=T 8.151685=T 9.1929=T -10.7967=T -8.5753=T -12.038=T 0.9728=T -0.1654=T 1.156=T 11.66648=T -0.79825=T 5.3828273928=T 13.0998152216=T 0.366876021=T pbc="F F F"
N        5.28380211      -2.06887422       0.12185237
C        4.54962765      -1.16498243       0.05875460
C        3.65583075      -0.01280378      -0.01788813
C        4.41975075       1.30402379       0.02238966
C        4.82138460       1.99144950      -1.21289795
O        3.68828039       2.44696995      -0.43734978
H        2.94701436      -0.05750806       0.82414896
H        3.06582228      -0.06886274      -0.94509123
H        5.01208208       1.46916007       0.92983554
H        4.57232835       1.54290140      -2.18023039
H        5.69001668       2.65616654      -1.20131365
