19
Properties=species:S:1:pos:R:3 -1829.234668840642=T 12.452421=T 13.40228=T -8.5889=T -6.6535=T -9.548=T 0.7668=T -0.1553=T 0.999=T 8.73836=T -0.4569=T 5.0347986908=T 6.0543107716=T 0.220346144=T pbc="F F F"
C        2.95004243      -1.16125169      -0.35878139
C        2.36720045      -0.03240239       0.49052147
C        3.06241889       1.32423326       0.29063438
C        2.31585595       2.46108139       1.00132260
N        4.46692680       1.24834741       0.70921045
C        5.47545744       1.94271115       0.07372656
N        6.66818091       2.21598451       0.47222579
H        2.43720239      -2.11242172      -0.15912479
H        4.02058290      -1.30052392      -0.15332548
H        2.84242184      -0.94372732      -1.43256253
H        2.41689992      -0.29819172       1.56216273
H        1.29648600       0.09549599       0.26279088
H        3.08644136       1.54018829      -0.79195788
H        2.27104893       2.27970517       2.08698296
H        1.28294172       2.54626278       0.63289580
H        2.82226197       3.42233982       0.83862624
H        4.62130818       1.04033884       1.69629350
H        5.18703521       2.25769554      -0.94111262
H        6.82669671       1.88049460       1.43517133
