17
Properties=species:S:1:pos:R:3 -1607.1417547897358=T 11.760289=T 12.13992=T -8.2105=T -6.2777=T -8.789=T 0.8928=T -0.2175=T 0.648=T 8.15262=T -0.02653=T 4.6733051092=T 5.1019371098=T 0.212095688=T pbc="F F F"
C        0.94486777      -0.14499876      -0.18289574
N        2.39056069      -0.21338781       0.00222803
C        2.95230772      -1.54974912       0.12396061
N        3.05038239       0.70892136      -0.75588836
C        4.27232768       0.54892728      -1.13492126
C        4.91506745       1.68676976      -1.88107986
O        4.03101934       2.77072006      -2.09552300
H        0.64968557       0.91013562      -0.20280500
H        0.44646963      -0.64140763       0.66036351
H        0.61384844      -0.62193748      -1.12580858
H        2.27473759      -2.16028772       0.73244970
H        3.92556356      -1.51003765       0.63463186
H        3.09111013      -2.03917469      -0.86174196
H        4.88241280      -0.34032103      -0.92900038
H        5.29141595       1.31483412      -2.85477221
H        5.80588749       2.02847654      -1.31479768
H        3.20476578       2.50536714      -1.63420968
