19
Properties=species:S:1:pos:R:3 -1816.148760319906=T 11.108405=T 12.33175=T -9.7364=T -7.4004=T -11.625=T 0.8313=T -0.1114=T 2.836=T 10.99844=T -2.54079=T 9.249665565=T 10.277137547=T 0.141187549=T pbc="F F F"
C        1.46105455       0.78022757       2.41351001
O        2.32530066       1.89815936       2.24557201
C        2.65408955       2.19912050       0.86803478
C        1.44960831       2.74489172       0.09877816
C        3.85278989       3.15759176       0.89982153
C        3.62294012       4.47245834       1.65045074
O        3.51001953       4.30445479       3.06426278
H        1.42227568       0.56787401       3.48919386
H        1.85728286      -0.10712788       1.88584835
H        0.43657532       0.98043953       2.05458716
H        2.98181360       1.25353099       0.38827478
H        1.05156135       3.65227942       0.57389637
H        0.64011347       2.00509360       0.03940709
H        1.74240300       2.99292116      -0.93159727
H        4.13099174       3.38286359      -0.14305931
H        4.70721084       2.63724932       1.36107814
H        2.73523029       4.99705428       1.24310677
H        4.48528151       5.13759592       1.48735640
H        2.94728772       3.51462202       3.19266766
