19
Properties=species:S:1:pos:R:3 -1912.0249942080043=T 13.187649=T 15.21025=T -9.9766=T -7.5979=T -9.808=T 0.9206=T 0.0089=T 2.341=T 9.43502=T -1.96958=T 4.3667745214=T 10.6106350898=T 0.960712792=T pbc="F F F"
C        1.04234857      -0.45344977       0.49982102
C        2.54798872      -0.30942669       0.27040456
C        2.98105502       1.13521472       0.00321809
C        4.48616991       1.28458407      -0.22602256
C        4.90106289       2.74558173      -0.49251793
C        6.33268462       2.91152884      -0.71053773
C        7.52865587       3.02362528      -0.88867650
H        0.76222877      -1.49958530       0.68910089
H        0.47145495      -0.10829775      -0.37595976
H        0.71277403       0.14201020       1.36521307
H        2.85458296      -0.94218974      -0.58029849
H        3.09448710      -0.69464525       1.14848381
H        2.67377825       1.76985394       0.85426012
H        2.43504752       1.52084357      -0.87690647
H        4.80091408       0.66354389      -1.08044126
H        5.04019906       0.91101392       0.65047458
H        4.58989839       3.37744436       0.35748376
H        4.35528447       3.12813160      -1.37248538
H        8.58225482       3.13043839      -1.04628382
