19
Properties=species:S:1:pos:R:3 -1824.6128593180024=T 12.171979=T 13.01267=T -8.1108=T -6.3078=T -9.159=T 0.7738=T -0.1648=T 1.162=T 8.26319=T -0.51698=T 4.9520504344=T 12.1434864064=T 0.239365388=T pbc="F F F"
C        2.63318630      -0.47644185       1.54235336
C        2.79960885       0.02274881       0.10195095
N        3.30004649       1.39187089      -0.01254676
C        2.30537881       2.44009822       0.18450697
C        4.66776682       1.63748196       0.11416647
C        5.10019123       3.08678447       0.07167106
N        5.60478543       0.74974704       0.22502226
H        2.28419463      -1.51906136       1.54899093
H        1.89485286       0.12692833       2.08939057
H        3.58445538      -0.42896364       2.08983361
H        1.83155051      -0.01450462      -0.42236881
H        3.47508746      -0.64041044      -0.46017333
H        1.38613285       2.16951737      -0.35554657
H        2.65807920       3.39410046      -0.21971372
H        2.04160590       2.59367961       1.24780010
H        4.77077130       3.58613258      -0.85148932
H        6.19326509       3.10287273       0.11433563
H        4.70421946       3.65913035       0.92356539
H        5.22730143      -0.20438091       0.27089121
