19
Properties=species:S:1:pos:R:3 -1863.51048506569=T 11.878187=T 13.35228=T -9.6258=T -7.4089=T -11.063=T 0.9506=T 0.0471=T 2.996=T 10.68583=T -2.65491=T 8.9161928194=T 11.3254887714=T 0.218274101=T pbc="F F F"
C        1.18831430       2.17536063       1.14081992
O        2.60423594       2.10329333       1.15931315
C        3.11504163       1.44447149      -0.00017772
C        4.61835423       1.33393084       0.09362527
C        5.13332016       0.48995679       1.24352350
C        5.36782728       1.30244956      -1.22195976
C        5.42832775       2.53360467      -0.34507565
H        0.87645459       2.68775183       2.06002991
H        0.72782401       1.16859187       1.11535102
H        0.81972681       2.74792257       0.26736482
H        2.82825731       2.00843482      -0.91211932
H        2.66394455       0.43191069      -0.08105180
H        6.23204934       0.45734834       1.24670338
H        4.76467036      -0.54569536       1.16838524
H        4.79899979       0.90130370       2.20665880
H        4.79378945       1.36146472      -2.14846287
H        6.25221385       0.66616155      -1.27864588
H        6.35731707       2.73800863       0.18871238
H        4.88785157       3.42323932      -0.67099438
