11
Properties=species:S:1:pos:R:3 -1200.4184237663674=T 8.820316=T 8.91054=T -7.9471=T -5.9009=T -8.124=T 0.8745=T -0.0923=T 0.532=T 7.60741=T -0.04974=T 4.4417116598=T 12.0602670032=T 0.404605479=T pbc="F F F"
N        0.91236694      -0.00125804      -0.23435798
C        2.30912661       0.00274358      -0.07021790
C        3.15905339       1.07921416       0.00114507
O        4.47134485       0.65012509       0.05894279
C        4.43556476      -0.71295414       0.03324261
C        3.14898986      -1.16499032      -0.04932801
H        0.47875050       0.88160835       0.03038755
H        0.46172499      -0.76204548       0.27176288
H        3.00956409       2.15250057       0.00583406
H        5.39677469      -1.21296018       0.07835152
H        2.82962934      -2.20182360      -0.10083258
