15
Properties=species:S:1:pos:R:3 -1625.3120162813436=T 11.360826=T 11.76712=T -9.3852=T -7.3631=T -9.557=T 0.0155=T -1.7194=T -0.798=T 9.06127=T 1.43692=T 3.4092926364=T 4.8305441544=T 0.456978809=T pbc="F F F"
O        0.99652342      -0.11654641       0.27161646
C        2.19095001       0.00206413       0.01951549
C        2.90797179       1.27697366      -0.01774876
C        4.23502594       1.38169051      -0.25648073
C        4.70702610       2.80498806      -0.18810705
C        3.38657891       3.61965982      -0.19687560
C        2.28410647       2.62738539       0.25223705
H        2.82263128      -0.89552773      -0.20771841
H        4.89679170       0.53167748      -0.43894097
H        5.28517234       2.95888866       0.74230714
H        5.38710896       3.06976513      -1.01286435
H        3.17864673       3.95689122      -1.22319197
H        3.43798423       4.51486573       0.43657954
H        1.33288647       2.75964264      -0.28190872
H        2.05111567       2.71902170       1.32675087
