16
Properties=species:S:1:pos:R:3 -1572.52535617336=T 10.533185=T 11.45153=T -8.8354=T -6.6865=T -9.463=T 0.9396=T 0.0184=T 1.212=T 9.00037=T -0.73484=T 6.408154417=T 0.350074884=T pbc="F F F"
C        0.79920480       1.83410662      -1.27977346
C        0.42116848       0.55203711      -0.53600060
C        1.60742233      -0.03912911       0.20787874
O        1.17405251      -1.23154625       0.88392458
C        2.11938455      -1.89200825       1.60866720
C        3.41386679      -1.57728386       1.77668836
H       -0.06773009       2.24936303      -1.81127710
H        1.58848737       1.65050003      -2.02447018
H        1.16623310       2.60760541      -0.58819318
H        0.03458068      -0.19934005      -1.24233147
H       -0.38542148       0.75361371       0.18629064
H        2.00535154       0.67596479       0.95153395
H        2.42628725      -0.29409853      -0.49014338
H        1.67484730      -2.77451889       2.07464683
H        3.88805528      -0.70707626       1.32725544
H        4.02886960      -2.22611948       2.39677364
