13
Properties=species:S:1:pos:R:3 -1264.7482868279203=T 9.92644=T 11.27309=T -10.2638=T -8.3218=T -10.316=T 0.5107=T -0.6612=T 0.077=T 9.75855=T 0.2428=T 5.2052918394=T 11.952436379=T 0.129380915=T pbc="F F F"
O        0.95160765       0.01559358       0.28508499
C        2.35173814      -0.01935779       0.04491247
C        3.03989311       1.14754808       0.79357311
S        4.33568740      -0.00218884       1.38993660
O        4.46099602      -0.04011017       2.85169357
O        5.52023269       0.06439108       0.51950433
C        3.11860424      -1.19873654       0.72237906
H        0.52523476      -0.64867083      -0.28405579
H        2.57569267       0.02100404      -1.03282673
H        2.43316818       1.49839059       1.63788983
H        3.42571898       1.97668046       0.19293009
H        3.56537852      -1.95717861       0.07124208
H        2.54574763      -1.64283504       1.54605639
