15
Properties=species:S:1:pos:R:3 -1571.6834852704071=T 11.577546=T 12.97836=T -9.4341=T -7.1912=T -9.433=T 0.8865=T -0.1445=T 2.23=T 9.04546=T -1.81744=T 4.30727364=T 9.4692695682=T 0.370248016=T pbc="F F F"
O        2.82226305      -0.97349517      -0.75888232
C        2.34022415       0.08721595       0.08048998
C        3.34800703       1.20390293       0.05732625
C        3.35518973       2.19506425      -1.07025506
C        2.85973981       2.62913082       0.30458634
C        3.63371256       3.52800162       1.11038253
C        4.29142172       4.28939439       1.79253351
H        2.23588000      -1.73945044      -0.63817360
H        2.20114594      -0.26681443       1.11901334
H        1.36335402       0.46388828      -0.28218003
H        4.31832450       0.96055450       0.49456251
H        2.60355025       2.08537297      -1.85299309
H        4.31519280       2.59276499      -1.39638035
H        1.77655321       2.74703305       0.39987048
H        4.86953121       4.96028627       2.39385950
