17
Properties=species:S:1:pos:R:3 -1739.7904236122333=T 10.798218=T 11.99884=T -8.9784=T -6.8994=T -10.682=T 0.9524=T 0.0645=T 2.97=T 10.26927=T -2.69968=T 8.591113926=T 11.067672283=T 0.176725119=T pbc="F F F"
C        1.00752377       0.06747832       0.40860252
C        2.46012618       0.02958466      -0.05797622
C        2.86746603      -1.32792432      -0.68108072
C        2.65690659      -1.11139841      -2.17898853
C        3.71775938      -0.31631345      -2.92334104
C        2.50689686       0.37694163      -2.35580161
O        2.68277839       1.01747826      -1.10396676
H        0.73431133       1.08490707       0.71894039
H        0.85552941      -0.60971779       1.26244313
H        0.33087755      -0.24192263      -0.40221857
H        3.12785183       0.31729122       0.76946609
H        2.23998795      -2.14679589      -0.30122819
H        3.91514396      -1.57391139      -0.44940670
H        2.03580113      -1.81058859      -2.73913676
H        4.66849006      -0.13575853      -2.41812561
H        3.77662367      -0.44113733      -4.00589919
H        1.75662593       0.83424717      -3.00509223
