11
Properties=species:S:1:pos:R:3 -1210.2438478932368=T 10.262068=T 9.62635=T -8.9535=T -6.9484=T -8.986=T -0.4083=T -2.1251=T -0.744=T 8.63615=T 1.29165=T 4.1367060998=T 5.436042184=T 0.280297975=T pbc="F F F"
C        0.92043992       0.05538728      -0.00006321
C        2.26415692       0.01965526      -0.00120127
O        2.98812922       1.21962585      -0.00263127
C        4.34730039       1.10013060      -0.00369173
N        5.05804961       0.03352448      -0.00357494
N        4.37534413      -1.21683677      -0.00216780
C        3.08126895      -1.17978449      -0.00109666
H        0.37327010       0.99561484      -0.00022307
H        0.36516343      -0.87958222       0.00105020
H        4.82642613       2.08150894      -0.00475649
H        2.56475122      -2.14540378      -0.00001376
