20
Properties=species:S:1:pos:R:3 -1938.3033592379704=T 12.477468=T 14.26717=T -9.1106=T -7.0064=T -10.705=T 0.9156=T 0.0266=T 2.973=T 10.09655=T -2.68192=T 8.572825991=T 11.2145337=T 0.147725992=T pbc="F F F"
C        0.87490106      -0.02369862      -0.02862001
C        2.38452334      -0.13957599      -0.24643563
C        3.16665276       1.05185169       0.32257766
C        4.65487061       0.96567347       0.07111933
N        5.60618275       1.80769476       0.83685505
C        5.57458620       0.33892185       1.06035922
C        6.80951723      -0.42632838       0.65556156
H        0.34073948      -0.88702434      -0.45026395
H        0.47266168       0.88316370      -0.50583804
H        0.62884897       0.02956096       1.04313667
H        2.59575249      -0.22577695      -1.32593070
H        2.75862539      -1.06963374       0.21333527
H        2.98639109       1.12516651       1.41090065
H        2.77637802       1.98634576      -0.12014838
H        4.93457970       0.87945909      -0.98634172
H        5.09252705       2.27596688       1.59271375
H        5.09633066      -0.00354248       1.98650996
H        7.22872987      -0.01116705      -0.27116969
H        6.57933436      -1.48965046       0.48974728
H        7.58532729      -0.36224668       1.43315174
