11
Properties=species:S:1:pos:R:3 -1218.7171904484753=T 8.628034=T 8.72869=T -9.3357=T -7.3567=T -10.182=T 0.6833=T -1.0683=T -0.331=T 9.72265=T 0.78979=T 4.184403514=T 5.7083278386=T 0.374217126=T pbc="F F F"
O        1.10804030      -0.10125732      -0.46439947
C        2.28500507      -0.02442043      -0.12621557
N        3.13430745      -1.08659344       0.15345223
C        4.46721920      -0.66640071       0.52606519
C        4.36488975       0.83293007       0.44865195
C        3.12663326       1.19428591       0.07858342
H        2.82389028      -2.04999624       0.09441845
H        5.23881013      -1.05289051      -0.16512074
H        4.74392308      -0.99845892       1.54373196
H        5.20748239       1.48558777       0.67193450
H        2.73280907       2.19710382      -0.06732194
