16
Properties=species:S:1:pos:R:3 -1572.4215780953502=T 9.73502=T 10.88027=T -9.775=T -7.675=T -11.835=T 0.9022=T -0.0211=T 2.668=T 10.89626=T -2.3582=T 9.1724098884=T 10.9093049652=T 0.212556614=T pbc="F F F"
C        2.70059569      -1.51085965      -0.83135356
C        1.98618582      -0.23177836      -0.38135338
C        2.92757807       0.87956421       0.05059499
C        3.74822317       0.64050979       1.29815684
C        3.40175683       1.84693007      -0.95911933
O        2.35409950       2.21360224      -0.03931895
H        1.97461344      -2.25800882      -1.18106209
H        3.27557435      -1.96947813      -0.01403206
H        3.39700367      -1.30828957      -1.65898055
H        1.30535252      -0.45784685       0.45714166
H        1.35827834       0.15856388      -1.19672882
H        4.34991515       1.52611724       1.53880918
H        4.42568196      -0.21665432       1.17175343
H        3.08917497       0.42808590       2.15372953
H        3.08678407       1.73592521      -2.00364496
H        4.35697244       2.36324715      -0.80855193
