17
Properties=species:S:1:pos:R:3 -1735.5307708830421=T 10.793175=T 11.97959=T -9.0246=T -6.9937=T -11.203=T 0.9471=T 0.081=T 2.869=T 10.48059=T -2.6033=T 9.0528129928=T 13.2962958358=T 0.134429722=T pbc="F F F"
C        0.98513199      -0.00024124       0.03576599
C        2.50054427       0.06775910       0.09170796
O        3.04978217      -1.00102788       0.93957966
C        3.87330938      -0.24042232       1.86033844
C        4.60057902       0.77331860       0.94304280
C        3.13529908       1.29042115       0.77838159
C        2.95272155       0.92724096       2.28803846
H        0.66707796      -0.99206034      -0.31435345
H        0.59769798       0.74969605      -0.67017573
H        0.53000294       0.17437663       1.02001345
H        2.91137923      -0.05892969      -0.92685328
H        4.37314512      -0.92648722       2.55342434
H        5.11329710       0.37083433       0.05772546
H        5.24025639       1.47620086       1.49162066
H        2.89511186       2.27897789       0.36781404
H        3.45043685       1.64961568       2.94719312
H        1.95289709       0.67264743       2.66383649
