7
Properties=species:S:1:pos:R:3 -780.3298576243725=T 6.435665=T 6.36061=T -10.708=T -8.4238=T -10.26=T 0.0886=T -1.866=T -0.331=T 9.86647=T 0.7284=T 5.0528138566=T 15.0473625124=T 0.698982927=T pbc="F F F"
C        0.96360713      -0.00768158       0.00000000
C        2.30576819       0.02950685       0.00000000
C        3.05315872       1.24357002       0.00000000
N        3.69650294       2.22043193       0.00000000
H        0.43672497      -0.96093907       0.00000000
H        0.36821980       0.90518446       0.00000000
H        2.89794825      -0.88854263       0.00000000
