13
Properties=species:S:1:pos:R:3 -1373.9633787446005=T 10.885225=T 10.98114=T -8.5896=T -6.6994=T -8.878=T 0.6199=T -0.9771=T -0.077=T 8.30546=T 0.62961=T 4.6743093958=T 0.252188875=T pbc="F F F"
N        0.91015802       0.08167708      -0.08409679
C        2.27822640       0.06013896      -0.08205397
C        2.86528569      -1.33816899      -0.10917583
O        2.13730078      -2.21736746      -0.97732014
C        3.05993059       1.17767999       0.01799718
C        4.47043454       1.12198935       0.05524186
N        5.64402265       1.10251795       0.07893537
H        0.43277218       0.95959138      -0.25991591
H        0.46395779      -0.75292357      -0.45927608
H        2.77734509      -1.77635728       0.89749685
H        3.93359922      -1.29031204      -0.36412735
H        2.42422329      -2.03611410      -1.89025532
H        2.60666377       2.16860873       0.09283013
