13
Properties=species:S:1:pos:R:3 -1368.6977914130293=T 9.559647=T 10.20181=T -8.8264=T -6.8042=T -9.689=T 0.8358=T -0.0732=T 0.988=T 9.01234=T -0.44818=T 5.3874644692=T 6.1357447764=T 0.181815418=T pbc="F F F"
N        1.37031767       0.09631527       0.86309023
C        2.24787952       0.00374215      -0.05441225
N        2.84992851      -1.18242194      -0.47465907
C        3.99223679      -0.90456387      -1.29921629
C        5.05697179       0.04206195      -0.75178649
C        3.88830604       0.57418330      -1.54222581
O        2.76325487       1.05520606      -0.80959545
H        1.07851116       1.07028523       0.98487349
H        2.88115341      -1.92166445       0.22289443
H        4.22097823      -1.61999227      -2.08939412
H        5.07687288       0.22877447       0.32299613
H        6.02552670       0.04552827      -1.25320271
H        4.00077244       1.05682583      -2.51136210
