15
Properties=species:S:1:pos:R:3 -1543.8129924921839=T 10.525948=T 11.33505=T -9.2245=T -7.0749=T -9.823=T 0.74=T -1.264=T -0.067=T 10.12424=T 0.71593=T 3.6586284824=T 6.3853161958=T 0.237793491=T pbc="F F F"
C        1.49827989      -0.22812952       1.35348668
C        2.66546873       0.49288157       0.68691194
O        2.31514105       1.07618598      -0.58148373
C        2.33387593       0.26718079      -1.68322082
C        2.62560574      -1.03877705      -1.76787443
C        3.19868175       1.64403634       1.53784890
O        3.40295875       1.55626160       2.73120404
H        1.80661275      -0.56335610       2.35208719
H        1.17906611      -1.09461539       0.76269516
H        0.64666103       0.45695001       1.46293239
H        3.52051335      -0.19730816       0.54272949
H        2.06959559       0.85619025      -2.56406172
H        2.87596377      -1.66796530      -0.91572114
H        2.61163859      -1.50590078      -2.75017194
H        3.40797698       2.58005576       0.96089799
