15
Properties=species:S:1:pos:R:3 -1567.8697093108328=T 11.507234=T 13.09306=T -9.8748=T -7.6378=T -9.894=T 1.2756=T 0.025=T 1.913=T 9.51825=T -1.51636=T 4.3624102142=T 10.3785704936=T 0.26497665=T pbc="F F F"
C        3.05398630      -1.27922103      -0.34763559
C        2.41161501       0.00091324       0.19654931
C        3.43076635       1.08032967       0.46208544
O        3.94050823       1.80056649      -0.67837284
C        3.12267784       2.52131830       0.28335449
C        3.76261196       3.54143868       1.06955039
C        4.27610976       4.42006892       1.73178358
H        2.29533415      -2.05159225      -0.53412651
H        3.78486119      -1.69209026       0.36366453
H        3.57761148      -1.08061425      -1.29325182
H        1.88109406      -0.21134077       1.14031851
H        1.66424906       0.38448124      -0.51573972
H        4.20552659       0.83936841       1.20282369
H        2.12451676       2.77939244      -0.09088095
H        4.73973127       5.19051116       2.31334748
