10
Properties=species:S:1:pos:R:3 -1112.0304401854794=T 10.872821=T 11.16492=T -8.765=T -7.0429=T -9.732=T 0.4622=T -1.1858=T -0.466=T 9.06043=T 0.93907=T 4.5049817156=T 11.293636768=T 0.27637373=T pbc="F F F"
C        1.84286043       0.25969242       0.31703773
O        1.35245881       0.54439376      -1.08304904
C        2.27666540       1.58523817      -1.11575732
N        2.66978522       2.51301093      -1.94745141
S        3.88405345       3.32973371      -1.05802881
C        3.78255221       2.34999995       0.40629957
C        2.81508829       1.41929801       0.17223387
H        2.27349775      -0.74845265       0.36095087
H        1.01966856       0.39009971       1.03038310
H        4.42694989       2.55725600       1.25674144
