14
Properties=species:S:1:pos:R:3 -1422.0151838531588=T 10.558497=T 11.15363=T -9.9711=T -7.9345=T -10.979=T 1.1258=T -0.6816=T 0.237=T 10.42311=T 0.35177=T 4.4103803976=T 6.7059563904=T 0.435316986=T pbc="F F F"
C       -0.71043086       1.95857144       1.67216690
C       -0.60878203       0.60583744       1.05347892
N        0.26692364       0.39856044       0.14182024
O        0.16656777      -0.97078747      -0.29271995
C        1.07824045      -1.28443217      -1.29636109
C        0.89907030      -2.74112002      -1.65116873
O        1.87198983      -0.51694535      -1.78167161
H       -0.54886148       1.89416186       2.75901687
H       -1.71984784       2.37109792       1.52221386
H        0.02789865       2.64143330       1.23616376
H       -1.28592838      -0.19392829       1.38682175
H        1.22493102      -3.37004111      -0.81109856
H        1.50499558      -2.96757316      -2.53313532
H       -0.15682664      -2.96935482      -1.84493703
