18
Properties=species:S:1:pos:R:3 -1791.358038381657=T 12.856041=T 14.52524=T -9.1264=T -6.9661=T -9.086=T 0.7923=T -0.1202=T 2.441=T 8.64296=T -2.02429=T 4.141008414=T 10.126990501=T 0.676707944=T pbc="F F F"
C        0.96924871      -0.00512748      -0.01418045
C        2.42496759      -0.00020565      -0.01346313
C        3.64065715       0.01389044       0.00310672
C        5.11295691       0.00344386      -0.00260636
C        5.63284036      -0.69714416       1.26988707
C        5.60616171      -0.75611482      -1.25924837
N        5.58280651       1.41331671       0.04318990
H        0.57120291       1.02055299       0.00438979
H        0.57346254      -0.53155422       0.86738573
H        0.56941082      -0.50352131      -0.91005784
H        5.27683386      -0.16577922       2.16096183
H        6.73397162      -0.69469656       1.27458263
H        5.28907733      -1.73905836       1.30919516
H        5.25358356      -0.25697813      -2.17269327
H        5.23844067      -1.79259180      -1.27136846
H        6.70692947      -0.77815261      -1.27303603
H        5.20221701       1.91591896      -0.76384353
H        6.60187127       1.41797135      -0.06908139
