14
Properties=species:S:1:pos:R:3 -1357.5530305015936=T 11.183681=T 11.18974=T -8.4719=T -6.4655=T -9.142=T 1.4708=T -0.2615=T 0.626=T 8.58196=T -0.09484=T 4.8195589948=T 5.3805832462=T 0.391927471=T pbc="F F F"
C        1.53165586      -0.56511965      -1.14755431
C        2.13407619      -0.08457358      -0.05465885
C        2.95995457       1.16833646      -0.03163385
N        4.30756684       0.88473000       0.46213761
N        5.01558879       1.96846384       0.87536050
C        6.30168507       1.90785405       0.86872626
H        0.92315624      -1.46979366      -1.11537524
H        1.61968953      -0.05926260      -2.11266224
H        2.04214947      -0.61138963       0.90083854
H        2.53069812       1.89970802       0.67126479
H        2.96728881       1.63957195      -1.03355970
H        4.82734230       0.20481303      -0.10967651
H        6.84887843       2.76362867       1.26387276
H        6.86619978       1.03534309       0.49950024
