17
Properties=species:S:1:pos:R:3 -1641.2617695390106=T 10.682097=T 11.91622=T -9.2266=T -6.9041=T -10.571=T 0.9646=T 0.0275=T 3.235=T 9.96274=T -2.95922=T 8.6752880214=T 11.3526293068=T 0.1794479=T pbc="F F F"
C        1.02438439      -0.06523162       0.00526058
C        2.53493568      -0.02620308      -0.05288984
C        3.27404412      -0.60906761      -1.23716095
C        3.24690917       0.89189351      -1.01580338
C        4.51011124       1.61137021      -0.60497226
N        5.30375552       1.97819552      -1.78943772
H        0.62686901       0.72709074       0.65825221
H        0.66373404      -1.03137351       0.39107069
H        0.58755992       0.07728906      -0.99464383
H        3.03199277      -0.15935299       0.91348405
H        2.67951328      -1.02002445      -2.05512279
H        4.21191882      -1.13625193      -1.04788856
H        2.61093556       1.46232812      -1.69941113
H        5.05284107       0.97614204       0.12760941
H        4.24720468       2.54508941      -0.07886922
H        5.59345805       1.12671837      -2.27895634
H        6.16257269       2.45403824      -1.50332094
