17
Properties=species:S:1:pos:R:3 -1716.6113446921293=T 11.806943=T 13.17435=T -10.1186=T -7.8104=T -9.987=T 1.0372=T -0.0851=T 2.065=T 9.57991=T -1.67945=T 4.3647783468=T 10.5168148836=T 0.366050987=T pbc="F F F"
C        1.17089006      -0.41377889       0.14218582
C        2.67836972      -0.19180633       0.00304926
C        3.07612362       1.27556006       0.18264030
C        4.58506408       1.54242095       0.02493184
O        4.87747718       2.95252752      -0.00541002
C        5.37640091       0.85839536       1.05219363
C        6.01064143       0.32829457       1.94210062
H        0.90933458      -1.47277961       0.00643585
H        0.60984248       0.16777108      -0.60520698
H        0.81430841      -0.10701950       1.13732506
H        3.01226462      -0.53930750      -0.99005401
H        3.21516564      -0.80806794       0.74228826
H        2.75820862       1.63238025       1.17765410
H        2.56688091       1.90422154      -0.56542877
H        4.90533872       1.17546542      -0.96592942
H        4.82075564       3.27706161       0.91196173
H        6.58536338      -0.14337859       2.71310274
