18
Properties=species:S:1:pos:R:3 -1759.0544579966586=T 11.209022=T 12.10136=T -8.5827=T -6.5411=T -9.85=T 0.9015=T -0.0409=T 3.049=T 9.05671=T -2.76594=T 7.7663466554=T 10.741279138=T 0.133533547=T pbc="F F F"
C        1.17763000      -0.08226778      -0.18847069
N        2.58711389      -0.12943823       0.16080002
C        3.07133391       1.07462426       0.85648403
C        4.41176730       0.63401540       1.48894227
C        4.43921273      -0.90839278       1.30768926
O        5.24805710      -1.31030724       0.19567373
C        2.96394691      -1.22993953       1.05438398
H        0.88767379      -1.01067435      -0.70047819
H        0.99018164       0.75688552      -0.87402088
H        0.52190911       0.04562629       0.70174806
H        2.35440647       1.38433481       1.64990366
H        3.16798865       1.91222447       0.14960846
H        5.28737106       1.07134542       0.99150330
H        4.45767363       0.91132325       2.55145952
H        4.85171566      -1.43131463       2.18102365
H        4.78195869      -0.96945203      -0.59378513
H        2.82408339      -2.20724729       0.57059176
H        2.38542606      -1.21482557       2.00869319
