22
Properties=species:S:1:pos:R:3 -2081.416431837778=T 13.051024=T 14.39513=T -8.3468=T -6.3561=T -9.835=T 0.8666=T -0.0489=T 3.03=T 9.04906=T -2.69192=T 7.754828356=T 11.910529111=T 0.167534528=T pbc="F F F"
C        1.80873340       0.66495073       0.04299709
C        2.99785763       1.47117730       0.55853064
N        4.21003334       1.10580801      -0.17892186
C        5.46747562       1.82228108       0.15166976
C        5.87990121       1.47837381       1.59262779
C        6.52929185       1.28142419      -0.81837964
C        5.36290582       3.35461908      -0.01081021
H        0.89936633       0.90120858       0.61338485
H        2.00645784      -0.41306629       0.12498533
H        1.60486455       0.89276734      -1.01532013
H        3.15597727       1.23697816       1.62327214
H        2.75051249       2.55286969       0.50540802
H        4.02894729       1.23236779      -1.17988289
H        5.17856951       1.89470101       2.32998598
H        6.87372966       1.89373197       1.81361393
H        5.91754561       0.38793689       1.72739429
H        6.25647533       1.50645402      -1.86201734
H        6.61868308       0.19084553      -0.71608426
H        7.51012110       1.73840841      -0.62385812
H        5.07598246       3.61921404      -1.04068599
H        6.32715868       3.83989239       0.20410595
H        4.61753993       3.78604627       0.67282466
