12
Properties=species:S:1:pos:R:3 -1279.2448844284997=T 9.722372=T 9.81718=T -7.7126=T -5.7884=T -8.104=T 0.5775=T -0.6251=T 0.72=T 7.65973=T -0.16373=T 4.607877697=T 6.198866049=T 0.448654352=T pbc="F F F"
O        0.95884840       0.05312701      -0.29598728
N        2.32842843       0.07131545      -0.01777657
C        3.16135302       1.17742019      -0.11311698
C        4.44787254       0.68521917      -0.01718682
C        4.39673789      -0.74170927       0.07761240
C        3.06258768      -1.09679990       0.04580485
O        2.45495157      -2.31190410       0.10332941
H        0.52899330       0.22507969       0.56770628
H        2.75391027       2.17459098      -0.22572700
H        5.34732765       1.29302952      -0.00521202
H        5.23006017      -1.43024253       0.16397100
H        1.55509909      -2.20668621      -0.26398727
