14
Properties=species:S:1:pos:R:3 -1382.113168614796=T 9.984135=T 10.38753=T -8.373=T -6.4187=T -9.334=T 0.9309=T -0.038=T 1.037=T 8.47739=T -0.47332=T 4.9594276014=T 5.829077804=T 0.212238051=T pbc="F F F"
N        1.14212010       0.14040664       0.53776647
C        2.35673489       0.11674879       0.10406100
N        3.15931610       1.22182061       0.15880516
C        2.69090579       2.61136652       0.32072116
C        3.96089351       3.08427059      -0.43897865
C        4.25777273       1.59150994      -0.75758007
H        0.72562440      -0.79248364       0.45651676
H        2.88065529      -0.76072352      -0.31774352
H        2.58703731       2.92883430       1.36813451
H        1.73693509       2.79132870      -0.20133585
H        3.78355504       3.72500834      -1.30976594
H        4.71364096       3.54980149       0.20820248
H        4.06696117       1.31351891      -1.80809154
H        5.24650762       1.21284232      -0.45583196
