16
Properties=species:S:1:pos:R:3 -1674.5873185983928=T 11.000921=T 11.59006=T -8.598=T -6.5189=T -8.68=T 0.9145=T -0.0105=T 1.364=T 8.15926=T -0.72526=T 5.7285003608=T 0.222766612=T pbc="F F F"
C        0.39038028       1.35546946       0.78792144
N        1.29541567       0.31186985       0.20853300
C        0.41700920      -0.39952302      -0.79433782
C       -0.47979990       0.73318617      -1.34100724
C       -0.98048289       1.10259937       0.07597875
C       -1.42847809      -0.26615114       0.56948702
C       -0.58875573      -1.17602082       0.04388334
H        0.76140910       2.37100413       0.57606237
H        0.30595545       1.23746359       1.87888066
H        2.03664359       0.78441506      -0.31580804
H        1.02149906      -0.97600809      -1.50443975
H        0.09156632       1.53477457      -1.83498027
H       -1.29080936       0.38307422      -1.99390865
H       -1.70062910       1.92450749       0.16781193
H       -2.20190284      -0.43481998       1.31908726
H       -0.52375076      -2.23751086       0.27876598
