16
Properties=species:S:1:pos:R:3 -1632.5341789665686=T 10.785878=T 11.62319=T -8.7719=T -6.7214=T -10.233=T 1.0464=T -0.7515=T 0.344=T 9.60317=T 0.40869=T 3.7459642208=T 12.3006634586=T 0.159441076=T pbc="F F F"
C        1.05071471       0.00943308      -0.07565183
N        2.48873743      -0.02027358       0.12463088
C        3.00181244       1.09398175       0.93764486
C        4.44345111       0.67970066       1.23197716
C        4.35957048      -0.84636416       1.29724096
O        5.20970459      -1.60791081       1.71377542
C        2.98124337      -1.23766154       0.76285123
H        0.74627691      -0.81617900      -0.73453465
H        0.76436960       0.95384955      -0.56102938
H        0.48230661      -0.07896142       0.87774906
H        2.43453041       1.20397244       1.89118958
H        2.91289759       2.03879204       0.38228098
H        5.11472959       0.94021801       0.39787887
H        4.87231747       1.09046513       2.15431871
H        3.03647137      -2.09152918       0.07226391
H        2.36707630      -1.55172297       1.64259424
