15
Properties=species:S:1:pos:R:3 -1516.0976954616278=T 10.82584=T 11.40617=T -9.3026=T -7.0941=T -9.885=T 0.6816=T -1.0153=T -0.273=T 9.57238=T 0.77631=T 4.1047053132=T 5.4841239548=T 0.273486482=T pbc="F F F"
N        1.63422897      -0.30276906       0.92140257
C        2.86088036       0.05173320       0.20208680
C        2.94013572       1.52540767      -0.12596792
C        2.03364721       2.42358467       0.29221719
C        4.07822135       1.89599887      -1.03978230
N        4.56334290       3.17733346      -0.90636265
O        4.53367680       1.10752743      -1.87116564
H        1.71075564      -1.25825719       1.27324872
H        0.84187940      -0.29864564       0.27327256
H        3.02583246      -0.49522870      -0.74492065
H        3.72219722      -0.20573306       0.84302605
H        1.21284889       2.10764417       0.93806367
H        2.07372346       3.46930258      -0.01468047
H        4.38625201       3.70299593      -0.05733423
H        5.39644762       3.40215567      -1.44227368
