15
Properties=species:S:1:pos:R:3 -1567.0726396215327=T 10.645805=T 11.35389=T -9.6226=T -7.4514=T -9.571=T 1.4506=T -0.1132=T 0.88=T 9.03465=T -0.24647=T 6.203143566=T 0.328791809=T pbc="F F F"
C       -0.09042245       1.47382696       0.61645439
C       -1.39714580       0.73758416       0.25199924
C       -1.48132878      -0.50816567      -0.28110858
C       -0.29160028      -1.45400561      -0.55021660
C        0.75186471      -0.76534513       0.29912562
O        2.07255192      -0.17995068       0.11927578
C        0.88506248       0.61584363      -0.15603539
H        0.07769823       1.46482916       1.70532654
H       -0.13605132       2.52651958       0.29287355
H       -2.32883916       1.29164629       0.39978326
H       -2.47833998      -0.90029530      -0.50266168
H       -0.53616582      -2.48227865      -0.23752444
H       -0.04256016      -1.48022353      -1.62320351
H        0.54373669      -0.88454057       1.36979920
H        0.78108971       0.76124536      -1.23859737
