14
Properties=species:S:1:pos:R:3 -1411.6822377342867=T 10.545315=T 12.12801=T -9.4603=T -7.1408=T -9.246=T 0.9261=T -0.0067=T 2.461=T 9.0555=T -1.99117=T 4.1869204298=T 9.99389153=T 0.680276418=T pbc="F F F"
C        0.96721452      -0.05398484       0.03021189
O        2.38790896      -0.04603517       0.02960760
C        2.88917100       1.29479307       0.00055182
C        4.34401529       1.29619595       0.00065079
C        5.55859301       1.32984179       0.00003965
C        7.01273733       1.35627365      -0.00033520
H        0.65451841      -1.10514178       0.05272194
H        0.55522895       0.42608460      -0.87824788
H        0.55577911       0.46441387       0.91760955
H        2.51181548       1.85729678       0.88007880
H        2.51193795       1.81862810      -0.90259047
H        7.38632987       2.39106325      -0.01139891
H        7.41987065       0.84387470      -0.88453615
H        7.41970945       0.86308603       0.89479658
