16
Properties=species:S:1:pos:R:3 -1617.5106936974028=T 10.685894=T 11.75336=T -9.2976=T -7.1594=T -10.42=T 0.874=T -0.9321=T 0.279=T 9.65942=T 0.49196=T 3.7190716574=T 12.0448555434=T 0.148848866=T pbc="F F F"
C        2.45497255      -0.52771129      -1.51119557
C        2.44558701       0.09766461      -0.11386083
C        3.47004580       1.22156011       0.04711550
N        3.21645147       2.51433382      -0.67822348
C        2.97267792       3.26285994       0.59430082
C        3.37527625       2.00250272       1.37047075
O        3.53805752       1.72653081       2.53484891
H        1.70922156      -1.33151747      -1.58583866
H        3.44051353      -0.95747847      -1.74389164
H        2.22365975       0.21082253      -2.29323431
H        2.67034708      -0.66974765       0.64456460
H        1.43956991       0.48539894       0.12345116
H        4.48526628       0.83238764      -0.15418035
H        2.38070227       2.46536569      -1.26508909
H        3.62713785       4.13739026       0.73797159
H        1.93028325       3.56619782       0.79240061
