18
Properties=species:S:1:pos:R:3 -1755.4480302239253=T 10.981013=T 11.90324=T -8.3802=T -6.3011=T -9.903=T 0.8794=T -0.0725=T 3.045=T 9.23837=T -2.76235=T 7.8615307076=T 10.7138286376=T 0.110353672=T pbc="F F F"
C        0.96715327      -0.00617075       0.09900357
C        2.49045267       0.00676088      -0.05898453
C        3.02572451      -1.31665995      -0.63043519
O        2.67195224      -1.48604971      -2.00766239
C        3.21453956      -0.42126314      -2.79806988
C        2.70009283       0.93449930      -2.31878885
N        2.92414633       1.16272417      -0.88140405
H        0.61607866       0.97176096       0.45377934
H        0.66390182      -0.77371502       0.82556604
H        0.46461881      -0.23526236      -0.85080447
H        2.94067337       0.14845051       0.93877104
H        2.60768840      -2.18647463      -0.10093289
H        4.13134509      -1.34329018      -0.52781739
H        4.32416048      -0.44901820      -2.74298878
H        2.91279158      -0.62647391      -3.83645846
H        3.18516565       1.74718723      -2.88197866
H        1.61885888       1.00327548      -2.52022376
H        3.92775584       1.30338933      -0.73044069
