17
Properties=species:S:1:pos:R:3 -1607.8425460140757=T 11.46566=T 12.19052=T -8.4167=T -6.4643=T -9.735=T 0.7228=T -0.22=T 0.645=T 9.09739=T 0.03213=T 4.529952496=T 5.827094028=T 0.174351246=T pbc="F F F"
C        2.08598914       0.09436471       0.79444938
C        3.45340968      -0.13131354       0.15672672
N        4.18041687       1.12567194       0.03794437
C        5.39007426       1.13834790      -0.40951267
C        6.21656375      -0.01986001      -0.89303461
N        6.04210630       2.36902514      -0.38474305
O        5.17361743       3.44748376      -0.09224463
H        1.53204286      -0.85180394       0.87471528
H        1.48998170       0.79524361       0.19303205
H        2.19474561       0.52040729       1.80166861
H        3.32092003      -0.59787962      -0.83913995
H        4.02659203      -0.85775948       0.76473421
H        5.72707576      -0.51149739      -1.74618787
H        6.32104154      -0.77149184      -0.09676862
H        7.22389692       0.29624124      -1.19308347
H        6.56101184       2.59145933      -1.23864474
H        4.33097428       2.92883089       0.09395900
