13
Properties=species:S:1:pos:R:3 -1351.523397253042=T 9.891509=T 10.16184=T -9.2582=T -7.2422=T -9.403=T 0.5168=T -1.2224=T 0.131=T 9.07293=T 0.48095=T 4.4572843014=T 9.2702224438=T 0.174468402=T pbc="F F F"
C        0.99875606       0.06052977       0.18433985
C        2.47771759       0.05962623      -0.02897247
N        3.14675229       1.15747201       0.08069015
N        4.54633054       1.10919316      -0.11825443
C        5.11145240      -0.02248603       0.13067102
O        4.48256181      -1.21188074       0.34112903
C        3.19849401      -1.22853783      -0.33441960
H        0.72695661      -0.58944624       1.03074400
H        0.47447203      -0.33158448      -0.70240287
H        0.65104722       1.08054313       0.38457981
H        6.19724141      -0.08994421       0.23134855
H        2.66655571      -2.10858430       0.04613078
H        3.36781232      -1.34842047      -1.42158382
