15
Properties=species:S:1:pos:R:3 -1464.4457380107287=T 12.139609=T 12.14567=T -8.0281=T -6.0675=T -9.113=T 1.3353=T -0.308=T 0.567=T 8.67573=T 0.02627=T 4.9420943586=T 5.3949284264=T 0.23020574=T pbc="F F F"
C        7.07663758      -0.19237589       1.15030226
N        6.38513407       0.99858083       0.66198009
N        5.23678434       0.68254690      -0.04724482
C        4.26549035       1.50963106      -0.03081717
O        3.12558792       1.35489942      -0.78057211
C        3.08097599       0.32568431      -1.70477485
C        1.93602623       0.02892260      -2.32394835
H        8.00344946       0.12876342       1.64412537
H        7.34011625      -0.82200062       0.29047506
H        6.48008164      -0.79695837       1.85778316
H        6.20976053       1.66882012       1.42225772
H        4.20823167       2.43681632       0.55580046
H        4.03164178      -0.18120030      -1.87123025
H        1.00981605       0.55935400      -2.10460037
H        1.92531614      -0.76129380      -3.07114621
