16
Properties=species:S:1:pos:R:3 -1585.5621142783089=T 13.365249=T 13.15399=T -8.5545=T -6.6845=T -9.414=T 0.3879=T -1.2774=T -0.456=T 8.8885=T 0.96083=T 5.1233246948=T 5.2313908924=T 0.754997341=T pbc="F F F"
C        0.25416335      -0.51270402       0.62327016
C        1.54970941      -0.93048456      -0.04186653
O        2.62901027      -0.28603863       0.67350711
N        3.84312310      -0.62001338       0.06797668
C        4.83809352      -0.07368198       0.69135682
C        6.18357617      -0.29821847       0.21372113
C        7.27576721       0.22558719       0.80300731
H       -0.59227096      -0.99105059       0.11182741
H        0.11660140       0.57601148       0.57269054
H        0.23518558      -0.81795705       1.67843265
H        1.58652484      -0.61679299      -1.09748606
H        1.69647640      -2.02196770       0.00182508
H        4.67175779       0.55659218       1.57669936
H        6.27781993      -0.93111414      -0.67293819
H        7.19505215       0.85877942       1.68941074
H        8.27624985       0.03488324       0.41607578
