15
Properties=species:S:1:pos:R:3 -1532.207262139145=T 10.740706=T 11.45209=T -8.8814=T -6.8423=T -9.792=T 1.3822=T -0.3703=T 0.717=T 9.43314=T -0.08864=T 4.9719377888=T 11.689276094=T 0.205473855=T pbc="F F F"
C        0.97823331       0.01305199       0.55464778
C        2.31901246       0.04975500      -0.13010871
C        2.60101738       0.98624190      -1.25490185
C        4.03778993       1.29124273      -1.62835128
C        4.55130297      -0.11144089      -1.86564601
N        3.68101132      -1.05223080      -1.77266093
N        2.37661776      -0.49027821      -1.51995797
H        0.95012838       0.73543009       1.38401677
H        0.77729353      -0.98788095       0.96254704
H        0.17344626       0.26113173      -0.14991621
H        3.18001378      -0.23033692       0.48694396
H        1.80147543       1.63979673      -1.60880351
H        4.61848644       1.80875128      -0.84740226
H        4.10352634       1.90831886      -2.54029851
H        5.59293471      -0.36099253      -2.08432830
