16
Properties=species:S:1:pos:R:3 -1515.9982807413344=T 10.68216=T 11.22059=T -9.1033=T -6.8694=T -9.173=T 0.9665=T -0.1396=T 1.476=T 8.57789=T -0.84699=T 6.4446558954=T 0.404011615=T pbc="F F F"
N        2.67540496      -0.52352039       1.28189154
C        2.36061854       0.16281858       0.01232692
C        2.81312535       1.60482784       0.05454497
C        1.94953646       2.61464349      -0.12622220
C        4.28916346       1.81484881       0.30498506
N        4.70048326       3.21862981       0.22111043
H        2.44149961      -1.51582579       1.20559865
H        2.08246481      -0.14217703       2.02452606
H        1.28932058       0.13546132      -0.26682700
H        2.91466946      -0.36615976      -0.78364717
H        0.89079744       2.41929187      -0.30880359
H        2.28036721       3.65272851      -0.07993699
H        4.84057536       1.13723181      -0.38362686
H        4.51922975       1.44101522       1.31591269
H        4.66781046       3.53423580      -0.75206091
H        5.67217329       3.30951993       0.52206840
