14
Properties=species:S:1:pos:R:3 -1420.0263259667422=T 9.609413=T 10.64518=T -8.7331=T -6.7493=T -10.225=T 0.9055=T -0.0013=T 0.429=T 9.7307=T 0.16746=T 5.920889437=T 12.657606754=T 0.157861184=T pbc="F F F"
C        0.89919735      -0.14526767       0.16603488
C        2.31185058       0.08815518      -0.30423073
O        2.85087723      -1.08057778      -0.93842075
N        3.64555001      -0.61374825      -2.04406163
C        3.30279190       0.61608897      -2.21325930
C        3.78457973       1.49902889      -3.30286545
O        2.37995216       1.11426580      -1.33122196
H        0.50496393       0.76265345       0.64046440
H        0.89196691      -0.95568963       0.90647513
H        0.26103565      -0.42605213      -0.68123560
H        2.98472187       0.40780828       0.52067439
H        4.28196148       2.38810318      -2.89147784
H        2.93566724       1.84045908      -3.91235450
H        4.48573398       0.94619263      -3.93601104
