14
Properties=species:S:1:pos:R:3 -1387.3954016848425=T 11.925788=T 11.58633=T -8.0184=T -6.0998=T -8.603=T 1.5447=T -0.0647=T 0.658=T 7.87837=T -0.11973=T 4.7904346834=T 5.1778785348=T 0.53060978=T pbc="F F F"
C        0.98831486      -0.25915027      -0.00867134
N        2.40075470       0.02182162      -0.17175353
C        2.78321412       1.22652563       0.01757426
N        4.10414918       1.60119605      -0.11675179
C        4.58918780       2.88696772       0.06832272
C        5.87074405       3.27036000      -0.06759934
H        0.84863676      -1.03537908       0.76085851
H        0.58088983      -0.66865168      -0.94704071
H        0.38330482       0.62512335       0.27471529
H        2.11308291       2.06136009       0.29882089
H        4.74945765       0.85643813      -0.37848707
H        3.81532710       3.60611180       0.34765995
H        6.66140086       2.57237486      -0.34640204
H        6.14525535       4.30815180       0.10239422
