16
Properties=species:S:1:pos:R:3 -1607.868273397861=T 11.075947=T 12.13134=T -9.3379=T -7.2632=T -10.789=T 0.8369=T -1.0287=T -0.107=T 9.95138=T 0.74702=T 3.660128713=T 12.6570984114=T 0.184115092=T pbc="F F F"
C        1.02824516      -0.11008000       0.08580137
C        2.53423561      -0.06055079      -0.00874712
C        3.34785182      -0.70089407      -1.12369650
C        2.70158997      -1.39735807      -2.26566372
O        3.03018894      -2.50675157      -2.65321985
N        3.15439309       0.75926833      -1.03046196
C        4.33893292       1.52338123      -0.64293901
H        0.66532367       0.70088475       0.73445826
H        0.69583777      -1.06412879       0.51957871
H        0.56029275       0.01020744      -0.89860506
H        3.05802234      -0.10334346       0.95769069
H        4.31220176      -1.12510744      -0.81875415
H        1.87565002      -0.82558881      -2.75787703
H        4.01750403       2.49153187      -0.23324445
H        4.95431257       1.71178231      -1.53354040
H        4.96190760       1.00925708       0.11561023
