19
Properties=species:S:1:pos:R:3 -1880.1099631037991=T 11.579822=T 12.85109=T -9.5826=T -7.4371=T -11.232=T 0.8914=T -0.0572=T 2.712=T 10.90018=T -2.43668=T 8.986009336=T 13.2765076702=T 0.10880861=T pbc="F F F"
C        0.92379286      -0.00308172      -0.03893874
C        2.43933352       0.00608800       0.06977615
C        3.16391967       1.04106168       0.97398401
C        4.22667598      -0.03917212       1.30459379
C        3.20798663      -1.12455992       0.84091081
C        2.43452344      -1.74332003       1.99612435
O        3.70022756      -2.22322523       0.07090400
H        0.57055103      -0.88399970      -0.59592746
H        0.56175239       0.89141103      -0.56798729
H        0.44823281      -0.01657784       0.95304396
H        2.88094725       0.06080212      -0.94249802
H        2.55681558       1.30262340       1.85358013
H        3.51196795       1.96878631       0.50112216
H        5.08250070       0.01351309       0.61380583
H        4.60632782      -0.10793768       2.33394874
H        2.02857126      -0.97312891       2.66572686
H        3.10494733      -2.39060620       2.57889769
H        1.60258742      -2.35581810       1.62104435
H        4.20246881      -1.85403818      -0.67677133
