15
Properties=species:S:1:pos:R:3 -1470.0647681294001=T 9.23496=T 10.05604=T -9.8767=T -7.586=T -10.957=T 0.9922=T 0.0815=T 3.092=T 10.61366=T -2.77087=T 8.8600643572=T 10.8572432438=T 0.208230071=T pbc="F F F"
C        0.86732081       0.03030155      -0.25974403
C        2.35378187      -0.00017563       0.04271816
C        2.69673262      -0.02839184       1.52043091
C        3.25360080      -0.76019943      -0.90728466
C        3.28025113       0.75613662      -0.88437595
H        0.67779769       0.05090027      -1.34273187
H        0.39267799       0.92137239       0.18206431
H        0.36210838      -0.85765073       0.15353712
H        3.78446454      -0.05024447       1.68034009
H        2.26678036      -0.91794133       2.00863000
H        2.29866267       0.86109089       2.03507758
H        2.79541366      -1.24885557      -1.76895790
H        4.11063581      -1.29122546      -0.48929307
H        4.15517544       1.24390335      -0.45102735
H        2.83996623       1.28629938      -1.73071334
