16
Properties=species:S:1:pos:R:3 -1510.5170552566483=T 10.099531=T 10.95326=T -8.7713=T -6.5711=T -10.185=T 0.9292=T -0.0472=T 3.238=T 9.51815=T -2.94608=T 8.3729481604=T 11.1694771876=T 0.119476282=T pbc="F F F"
N        2.29096835      -0.46064871      -1.40563833
C        2.42832970       0.04701923      -0.03182228
C        3.20214520       1.35688067      -0.02711310
C        2.53271419       2.63707527      -0.58752107
C        3.10726782       3.35408453       0.65706408
N        3.28761154       2.02293286       1.30493342
H        1.67683710      -1.27737853      -1.41640821
H        3.19875937      -0.78484343      -1.75034636
H        2.92270824      -0.65454341       0.67309752
H        1.42197757       0.24306082       0.37077503
H        4.19552087       1.20135866      -0.50006627
H        1.43716942       2.56038327      -0.56811072
H        2.85678928       2.98903650      -1.57281870
H        4.05463060       3.87653003       0.42840066
H        2.44723964       4.04090131       1.20926474
H        4.17719110       1.89997095       1.79426957
