17
Properties=species:S:1:pos:R:3 -1596.9957710336234=T 11.719259=T 12.32251=T -9.1136=T -7.0483=T -10.361=T 1.0568=T -0.4065=T 0.572=T 9.90099=T 0.06835=T 5.4359305966=T 6.441382665=T 0.215409435=T pbc="F F F"
C        3.59396255      -0.68915942       1.18590156
O        4.43699003       0.04501778       0.29117178
N        4.57472602       1.36147059       0.78255863
C        5.33608075       2.06043661       0.02389742
C        5.62934335       3.50560931       0.33624544
C        4.99550275       4.00019540       1.63996803
N        7.09211656       3.68390554       0.23341903
H        3.52363421      -1.69574465       0.75589884
H        2.59206398      -0.23715259       1.24686453
H        4.03631780      -0.74293853       2.19256476
H        5.80969030       1.63264562      -0.87030819
H        5.20150391       4.08853471      -0.50292961
H        5.39064278       3.44147283       2.50066324
H        3.90433412       3.87029574       1.63338219
H        5.22074554       5.06684022       1.78176145
H        7.54266598       3.23264139       1.03563417
H        7.31820937       4.67947945       0.29925671
