16
Properties=species:S:1:pos:R:3 -1588.842672690062=T 10.312856=T 11.50661=T -9.2925=T -7.0468=T -11.064=T 0.8297=T -0.1249=T 2.728=T 10.43259=T -2.37645=T 8.7271637638=T 11.4726353562=T 0.163193294=T pbc="F F F"
C        0.65294601       1.04495637      -0.36614589
N       -0.44995324       0.19344765       0.13224112
C        0.88001856      -0.40397591      -0.11143223
C        1.63559760      -0.91345975       1.09115148
C        1.43575043      -0.22220763       2.45733085
O        1.12323370      -1.49239131       3.10324444
C        1.08365369      -2.16461746       1.81328465
H        0.63328757       1.38950000      -1.40308298
H        1.01465030       1.78232502       0.35591990
H       -1.08504755      -0.03932244      -0.63637995
H        0.98752096      -1.03047365      -1.00520847
H        2.69981477      -1.02187413       0.83301380
H        0.57231512       0.46272846       2.48669719
H        2.32112038       0.25376770       2.90663216
H        1.71157797      -3.06988309       1.80295044
H        0.04930372      -2.42190985       1.52451350
