16
Properties=species:S:1:pos:R:3 -1626.6296995398468=T 10.667919=T 12.04557=T -11.0186=T -8.8056=T -11.898=T 0.9778=T -0.4265=T 1.219=T 11.48101=T -0.83324=T 5.3813147636=T 12.7872465156=T 0.18071692=T pbc="F F F"
C        1.28896393      -0.47358462      -0.04728175
C        2.79847673      -0.25968832       0.07999221
C        3.19090306       1.21722433      -0.02595316
C        4.70422707       1.47279065       0.07434851
O        5.06372040       2.83192258      -0.18535181
C        5.23312571       1.03181564       1.38164392
N        5.62457630       0.71529260       2.43424823
H        1.03359791      -1.53950224       0.02874241
H        0.91185853      -0.10693255      -1.01383120
H        0.74362724       0.05717882       0.74744802
H        3.32004826      -0.83100128      -0.70677467
H        3.14929962      -0.66530968       1.04260635
H        2.68129023       1.79910771       0.76138980
H        2.87169785       1.63206367      -0.99497102
H        5.22390325       0.88915081      -0.70368881
H        4.68201392       3.38359188       0.52252298
