17
Properties=species:S:1:pos:R:3 -1721.6185393545186=T 11.0384=T 12.66507=T -9.7489=T -7.6097=T -11.259=T 0.9386=T 0.0676=T 2.782=T 10.94842=T -2.41043=T 9.030458317=T 11.0325346506=T 0.36867556=T pbc="F F F"
C        1.13508421      -0.05604172       0.10873905
C        2.62201642      -0.10022811      -0.15862295
C        3.16216628      -0.64057640      -1.46078122
C        3.25769287       0.83884277      -1.16825242
C        4.54661120       1.52294517      -0.85333183
C        5.83924643       0.83340314      -0.69570378
O        5.56525486       1.59297270      -1.88619001
H        0.88252359       0.71371783       0.85347499
H        0.77061962      -1.02293758       0.48757891
H        0.57644995       0.17215009      -0.81125141
H        3.24222563      -0.31063198       0.71797344
H        2.44199308      -0.94602447      -2.22151734
H        4.07249724      -1.23991368      -1.44085539
H        2.55407958       1.47157518      -1.71805727
H        4.43256718       2.47205749      -0.31178242
H        5.90402846      -0.25003002      -0.84111713
H        6.59469341       1.26193959      -0.02710322
