13
Properties=species:S:1:pos:R:3 -1332.3765669309864=T 10.277396=T 10.16281=T -8.1576=T -6.1983=T -8.624=T 0.9023=T -0.5376=T 0.428=T 8.09574=T 0.14555=T 4.681587374=T 6.6989883772=T 0.201738506=T pbc="F F F"
C        1.02815335       1.12561243      -0.29942579
O       -0.15579678       1.44027609       0.48162619
N       -1.37382063       0.85146576       0.04359333
C       -1.41664732      -0.43746490      -0.05182989
N       -0.47178169      -1.43762814       0.10885245
C        0.92164114      -1.33971645       0.13953549
C        1.63517328      -0.21451797      -0.02803595
H        1.73658469       1.92718075      -0.04348260
H        0.76753921       1.24109404      -1.36547806
H       -2.41105356      -0.81726335      -0.30430300
H       -0.84552732      -2.37975584       0.05130609
H        1.40999557      -2.29644800       0.32635670
H        2.71955006      -0.28234443       0.06164504
