18
Properties=species:S:1:pos:R:3 -1787.179702131051=T 11.526549=T 12.72091=T -8.7206=T -6.5141=T -10.182=T 0.9358=T 0.0132=T 3.075=T 9.51179=T -2.69732=T 8.3259822636=T 11.001525752=T 0.168624368=T pbc="F F F"
C        0.61113968       1.07219720      -0.35984912
C       -0.51692911       0.22725578       0.18914842
C        0.82308766      -0.40247351      -0.10537821
C        1.74125517      -0.89447655       0.99333775
C        1.63755786      -0.20395363       2.38277380
N        0.80741182      -1.33712158       2.87169701
C        1.25899619      -2.18019522       1.73013962
H        0.55015854       1.41624975      -1.39282343
H        1.08975421       1.77821637       0.32152599
H       -1.34977185      -0.01075060      -0.47293391
H       -0.79447201       0.35397582       1.23635895
H        0.85797785      -1.02914136      -1.00203377
H        2.76844893      -0.95628676       0.60438069
H        1.13818628       0.77797805       2.43719949
H        2.62876998      -0.11646453       2.86330996
H        1.06896812      -1.69089022       3.79420603
H        2.09359808      -2.86536451       1.96589248
H        0.44988260      -2.75105449       1.24637825
