14
Properties=species:S:1:pos:R:3 -1452.6304937151303=T 11.857051=T 13.1449=T -9.341=T -7.2049=T -10.235=T -0.1213=T -1.9954=T -0.7=T 9.77629=T 1.29729=T 3.545503656=T 10.5416864752=T 0.727392015=T pbc="F F F"
C        0.96359345      -0.01929617      -0.04258414
N        2.42015184      -0.01219979       0.08412247
C        2.96636332       1.34403694      -0.01047243
C        4.41896052       1.37087474      -0.00351720
C        5.63781417       1.42901501      -0.02749311
C        7.07458405       1.43146528      -0.03218333
O        7.76569440       2.44180832      -0.08081463
H        0.60647060      -1.05720086      -0.03856970
H        0.58243241       0.48026100      -0.95785067
H        0.51830866       0.48845010       0.82680109
H        2.83614747      -0.58681782      -0.65240937
H        2.60230744       1.92721940       0.85539159
H        2.62044505       1.90234344      -0.91174278
H        7.53307660       0.41420041       0.01355222
