15
Properties=species:S:1:pos:R:3 -1580.4264227600952=T 11.189892=T 11.77112=T -8.1451=T -6.22=T -8.078=T 0.7184=T -0.1828=T 0.958=T 7.64=T -0.23197=T 4.6582036144=T 6.5305657948=T 0.320032503=T pbc="F F F"
C        0.96764296       0.03167572      -0.00966914
N        2.42406396       0.01578036      -0.00246293
C        3.24489959       1.13362470       0.00725051
C        4.53224098       0.64682176       0.01147778
N        4.53036562      -0.73040791       0.00458347
C        3.25160402      -1.08916984      -0.00375952
C        2.75641817      -2.49898758      -0.01484429
H        0.62576988       1.07242756      -0.00435638
H        0.56314003      -0.47018433       0.88043466
H        0.57192216      -0.45836365      -0.91024187
H        2.83797318       2.13929739       0.01056891
H        5.45873013       1.21482124       0.01918727
H        1.66118637      -2.55547864      -0.00619390
H        3.13439953      -3.04442585       0.86150655
H        3.11904341      -3.02668094      -0.90861113
