16
Properties=species:S:1:pos:R:3 -1622.0448669051486=T 11.026266=T 11.96556=T -8.2021=T -6.0731=T -8.697=T 0.9828=T -0.051=T 1.367=T 8.19978=T -0.75339=T 5.760885504=T 11.4409197374=T 0.301834107=T pbc="F F F"
N        2.34015556      -0.33651066       1.49366513
C        2.55033948      -0.00076664       0.07181432
C        3.12711185       1.36978859      -0.06950190
C        4.29113329       1.79498854      -0.58357639
C        4.39546213       3.29184155      -0.40798851
C        2.96220861       3.64011760       0.05070933
O        2.32150056       2.38027497       0.42590990
H        1.84423680      -1.22836128       1.55810756
H        1.72249005       0.36585199       1.90945437
H        1.62446160      -0.04502900      -0.53910144
H        3.26435900      -0.71758351      -0.35898753
H        5.07161550       1.15266503      -0.98141441
H        5.15187110       3.55414872       0.35277365
H        4.66412072       3.82844900      -1.33054673
H        2.36807427       4.07551939      -0.76910216
H        2.91713949       4.30606571       0.92184480
