15
Properties=species:S:1:pos:R:3 -1568.676996138638=T 11.216583=T 12.57361=T -10.0058=T -7.6568=T -9.824=T 0.9693=T -0.1331=T 2.273=T 9.41363=T -1.8461=T 4.4001143568=T 10.4624098268=T 0.387461908=T pbc="F F F"
O        2.84258934      -0.93843660      -0.52598736
C        2.25782658       0.21948990       0.10181915
C        1.81635616      -0.16648961       1.44335501
C        1.43781103      -0.44005553       2.56245341
C        3.22811660       1.38727164       0.14335008
C        3.38496601       2.24298088      -1.09692753
C        2.70519532       2.79961915       0.13181152
H        3.27609739      -0.61215970      -1.33574096
H        1.35894799       0.54022683      -0.46747479
H        1.10650625      -0.69467301       3.54841613
H        4.12655409       1.19114494       0.73255851
H        2.75334590       2.01729229      -1.95904847
H        4.38273905       2.60287488      -1.34832672
H        3.23427296       3.54231286       0.72827697
H        1.62362533       2.93767107       0.09263505
