13
Properties=species:S:1:pos:R:3 -1515.0422399176746=T 11.173371=T 10.9356=T -8.3687=T -6.5834=T -8.822=T 1.0673=T -0.4016=T 0.542=T 8.74845=T 0.00641000000002=T 4.5521707872=T 6.0749544406=T 0.692664453=T pbc="F F F"
O        0.97459985      -0.04538446       0.13738693
C        2.34194849       0.03504629       0.01530746
C        3.02346810       1.25758352      -0.05112449
C        4.41559748       1.27032965      -0.17512946
C        5.13375701       0.07277112      -0.23352319
C        4.44370955      -1.14325831      -0.16633305
C        3.05443993      -1.17033967      -0.04241318
H        0.61248408       0.85815368       0.16504580
H        2.46544958       2.19690372      -0.00588053
H        4.93850034       2.22691577      -0.22619422
H        6.21973628       0.08624121      -0.33038986
H        4.99289778      -2.08547535      -0.21093667
H        2.50661153      -2.11170718       0.01103446
