13
Properties=species:S:1:pos:R:3 -1374.9585901848=T 10.385173=T 11.29094=T -9.6308=T -7.4771=T -10.231=T 0.4046=T -1.5579=T -0.335=T 9.89798=T 0.96237=T 3.6239991926=T 11.0820918548=T 0.25634026=T pbc="F F F"
C        1.04075837      -0.00814041       0.70691928
O        2.41745619       0.32602411       0.92861309
C        2.90177993       1.29539601      -0.01405272
C        2.39364159       2.68219034       0.44191408
O        1.61123266       3.35818055      -0.19199116
C        4.35584611       1.29536437      -0.02264556
C        5.56487494       1.39755550      -0.02088271
H        0.79009430      -0.76311005       1.46105805
H        0.89599158      -0.43415338      -0.30110301
H        0.37267696       0.86064506       0.82775120
H        2.50464900       1.09629252      -1.02764350
H        2.76946633       2.97802594       1.45187948
H        6.63454204       1.45648944      -0.02530651
