21
Properties=species:S:1:pos:R:3 -2067.451680890395=T 12.982663=T 14.94562=T -9.7713=T -7.5706=T -10.98=T 0.9894=T 0.1323=T 3.123=T 10.59758=T -2.81784=T 9.0484486856=T 10.8017099144=T 0.196453617=T pbc="F F F"
C        1.08554408       3.06781944      -0.94135858
C        2.55905760       3.08003868      -0.53071950
C        3.20613234       1.68973195      -0.56545517
C        4.66145176       1.68974500      -0.14770813
C        5.59820205       0.59452483      -0.61090346
C        5.75635983       2.00288408      -1.14288001
C        6.95219025       2.83977099      -0.74912579
H        0.64695430       4.07536303      -0.90254933
H        0.49251928       2.42011039      -0.27712113
H        0.96122022       2.68940021      -1.96790148
H        2.65580381       3.49729328       0.48657301
H        3.12589516       3.75702811      -1.19223357
H        3.12278846       1.27341763      -1.58567148
H        2.63466871       1.00578383       0.08838160
H        4.84191538       2.05972790       0.86782726
H        5.19403299      -0.16876302      -1.27877754
H        6.35196421       0.22965030       0.08954140
H        5.41281479       2.15050458      -2.17220644
H        7.23907853       2.64693183       0.29584730
H        6.73920990       3.91607512      -0.84209182
H        7.82644635       2.61405185      -1.37940714
