16
Properties=species:S:1:pos:R:3 -1507.341919546043=T 10.32537=T 11.20785=T -8.6851=T -6.5=T -9.9=T 0.9057=T -0.0284=T 3.459=T 9.49416=T -3.48453=T 7.9875624766=T 12.0770175118=T 0.208725428=T pbc="F F F"
C        2.91117916      -1.12139175      -0.47674519
N        2.37154231       0.09024235       0.14394707
C        3.32825762       1.16216106       0.23399844
C        3.46540362       2.07786458      -0.97167797
C        2.81675172       2.59182493       0.28307199
N        3.44668890       3.65717936       1.03384678
H        2.14223908      -1.90679061      -0.47862423
H        3.81867050      -1.52190016       0.02102208
H        3.17362141      -0.90465237      -1.52300565
H        2.01256694      -0.13037334       1.07616505
H        4.26641865       0.97649265       0.78524300
H        2.82238124       1.87324763      -1.82805790
H        4.46291851       2.44732269      -1.21828731
H        1.72801446       2.68230623       0.23837542
H        4.45918857       3.64336275       0.89435824
H        3.28607731       3.53099398       2.03703016
