19
Properties=species:S:1:pos:R:3 -1816.4370118817544=T 11.377897=T 13.00246=T -9.6522=T -7.3866=T -11.641=T 0.9387=T -0.0436=T 2.88=T 11.52604=T -2.61712=T 9.4043752958=T 10.5842632676=T 0.084791037=T pbc="F F F"
C        3.15515071      -1.12336079       0.27072188
O        4.05455525      -0.02653064       0.30916397
C        3.44743449       1.17077363      -0.17315334
C        4.47762340       2.28909408      -0.12479109
C        3.93862013       3.63059272      -0.63250969
C        4.95633631       4.75663297      -0.46758939
O        3.47465417       3.54069282      -1.99444602
H        3.69377701      -1.99892948       0.65530134
H        2.81328070      -1.33371262      -0.76071339
H        2.26464647      -0.94209384       0.90276613
H        2.56971041       1.43045596       0.45535421
H        3.08018777       1.02783059      -1.20727237
H        5.35846294       1.99584616      -0.72293290
H        4.82758507       2.40722590       0.91361561
H        3.02687496       3.88681155      -0.06569452
H        5.88173517       4.53034927      -1.02217147
H        5.22682439       4.89468342       0.58943049
H        4.54596358       5.70091358      -0.84964763
H        4.25533707       3.38482472      -2.55726182
