10
Properties=species:S:1:pos:R:3 -1082.9858369811013=T 8.265938=T 8.53501=T -10.2085=T -8.0561=T -9.884=T 0.267=T -1.5619=T -0.161=T 9.40065=T 0.5933=T 5.0521567308=T 11.5150881626=T 0.422448083=T pbc="F F F"
C        0.97963357       0.02739559      -0.01755914
C        2.48556380      -0.04285078      -0.01305871
C        3.19564645      -1.16593462       0.20301735
C        3.17466603       1.19187372      -0.25940649
N        3.69479070       2.21926420      -0.46402910
H        0.62088993       0.72982170       0.74845197
H        0.54859553      -0.96171596       0.17806283
H        0.61056210       0.39053352      -0.98752816
H        2.68831978      -2.11249794       0.39199078
H        4.28476212      -1.16189943       0.19540867
