15
Properties=species:S:1:pos:R:3 -1604.702845184991=T 10.582383=T 11.4959=T -9.2902=T -7.134=T -9.322=T 1.296=T -0.3124=T 1.078=T 8.81347=T -0.46593=T 6.0730698534=T 0.257049749=T pbc="F F F"
C        1.39319838       0.41573539      -0.21527152
C        2.69651809      -0.20991842       0.19872393
C        2.86439223      -1.73335010       0.20603973
C        4.34869455      -1.93480700       0.00013453
C        4.99801498      -0.76849872      -0.16286119
C        4.04327344       0.36885435      -0.03316075
O        3.40523338       0.43648666       1.28386194
H        1.47084122       1.51039763      -0.20405938
H        0.58677505       0.12323659       0.47443133
H        1.10831055       0.09061150      -1.22673720
H        2.27262393      -2.20604878      -0.59702090
H        2.51465791      -2.16526340       1.15815554
H        4.81811314      -2.91954188       0.02247599
H        6.06908591      -0.64937949      -0.32450739
H        4.20911723       1.33819568      -0.51125466
