17
Properties=species:S:1:pos:R:3 -1691.5184918670686=T 10.177982=T 11.29013=T -9.7348=T -7.5422=T -11.372=T 0.9186=T -0.0069=T 2.995=T 11.05332=T -2.79776=T 9.0652115928=T 11.182483319=T 0.145760684=T pbc="F F F"
C        0.94942464       0.03288242       0.06764295
C        2.46867967      -0.00395532      -0.11044544
O        2.94238336      -1.27042753      -0.57215428
C        2.64475834      -1.51432206      -1.95576830
C        3.19396209      -0.38683904      -2.82665143
C        2.66566940       0.94424895      -2.29704583
O        2.96119738       1.08147351      -0.89832476
H        0.66088868       0.99449442       0.51229977
H        0.64517244      -0.77561231       0.74549047
H        0.40085954      -0.08620593      -0.87519481
H        2.95726709       0.12755270       0.86641728
H        3.11434559      -2.47979014      -2.18906567
H        1.55323995      -1.62587195      -2.10919866
H        4.29376711      -0.38933162      -2.77603507
H        2.89389462      -0.53007827      -3.87699253
H        3.15143318       1.80160012      -2.78287730
H        1.57601691       1.02824203      -2.47870638
