20
Properties=species:S:1:pos:R:3 -1940.1248519185406=T 12.318702=T 13.58253=T -9.1138=T -6.9372=T -10.515=T 0.8687=T -0.0654=T 2.917=T 9.85528=T -2.54873=T 8.4463850682=T 11.1459570434=T 0.145238542=T pbc="F F F"
C        2.61758408      -1.40763596      -0.46746803
C        2.00100931      -0.09213435       0.03824663
N        1.08861095      -0.25532351       1.18961242
C        3.06529311       0.96121369       0.35901272
C        4.02803953       0.63552246       1.48709445
C        3.59609744       1.75943877      -0.81261361
C        2.66014323       2.40484229       0.18881264
H        3.28527373      -1.23606244      -1.32643148
H        1.82942929      -2.10683485      -0.78462063
H        3.20218854      -1.90329235       0.32310729
H        1.38425022       0.32578503      -0.77758579
H        1.59239683      -0.70708802       1.95957686
H        0.34207273      -0.90815624       0.93529634
H        4.75561869       1.44930620       1.61785482
H        4.59819400      -0.28578744       1.29196306
H        3.49946271       0.51951068       2.44673078
H        3.20430052       1.53783958      -1.80750230
H        4.64727173       2.05301665      -0.79905533
H        3.07752344       3.13778626       0.88124065
H        1.63389993       2.60879356      -0.11969147
