14
Properties=species:S:1:pos:R:3 -1493.4728626832737=T 12.872682=T 12.30053=T -8.2714=T -6.4596=T -8.949=T -0.0927=T -1.6325=T -0.624=T 8.75331=T 1.45453=T 3.4115119858=T 4.4136412294=T 0.490601481=T pbc="F F F"
N        0.05512392       1.12193266       0.38551087
C        1.26594456       0.50904215       0.44152822
C        2.33903847       0.73742558      -0.36622661
C        3.58321877      -0.00251587      -0.14479345
O        3.72798456      -0.84366509       0.75643081
C        4.69855700       0.31979816      -1.09288130
C        5.89269679      -0.28250106      -1.00801194
H       -0.71075560       0.79918173       0.96198977
H       -0.16963734       1.76252666      -0.36802667
H        1.38451570      -0.23180491       1.23799315
H        2.28876155       1.46404967      -1.18126731
H        4.50519032       1.07142697      -1.86471846
H        6.06359310      -1.02964462      -0.22954361
H        6.70614821      -0.04965203      -1.69577348
