10
Properties=species:S:1:pos:R:3 -1188.4166618152244=T 9.661176=T 10.45735=T -10.6871=T -8.4242=T -10.579=T -0.9398=T -2.9343=T -1.486=T 10.48936=T 1.96802=T 3.3742665914=T 10.882375206=T 0.602392725=T pbc="F F F"
O        2.54207329       1.03902316       0.63851528
C        2.37776275       0.09397028      -0.10608893
C        3.01357905      -1.28116626       0.10521000
C        2.06081631      -2.37077489      -0.03391791
C        1.23399395      -3.24950809      -0.15080160
C        1.55188000       0.24011773      -1.32033839
N        0.93525190       0.40656245      -2.29765350
H        3.48441451      -1.26920233       1.09873792
H        3.81939685      -1.38203473      -0.64468876
H        0.50929140      -4.03175734      -0.25254412
