17
Properties=species:S:1:pos:R:3 -1658.4667797115567=T 11.287267=T 12.77186=T -9.1635=T -7.0196=T -10.727=T 0.973=T 0.02=T 2.975=T 10.47924=T -2.65572=T 8.767298032=T 11.349120503=T 0.346437979=T pbc="F F F"
C        1.29794732       0.20386368       0.22841065
C        1.21020072      -0.04115392       1.71796289
C        0.69637576      -1.31744733       2.28069490
N        2.15365225      -1.04629869       2.26693736
C        2.43896080       1.12986538      -0.12805201
C        2.38269643       2.03806669      -1.30345343
N        2.18184160       2.57880875       0.06208945
H        1.43384463      -0.76144540      -0.28639306
H        0.35281222       0.64615089      -0.12716421
H        1.03610738       0.85971267       2.31602531
H        0.37910138      -2.11350979       1.60188803
H        0.16076029      -1.28455758       3.23274584
H        2.45237815      -0.76182693       3.20507001
H        3.42989692       0.75714959       0.15242004
H        1.48666792       2.04969458      -1.92968083
H        3.31417035       2.26157170      -1.82950447
H        3.04161586       3.04360572       0.37032353
