14
Properties=species:S:1:pos:R:3 -1451.6544133247228=T 9.705012=T 10.30928=T -9.1021=T -7.1206=T -10.247=T 1.2419=T -0.4064=T 0.523=T 9.76139=T 0.08253=T 5.2994220106=T 9.899290212=T 0.175873346=T pbc="F F F"
C       -1.06960175      -0.01207060      -1.03730904
C       -0.61523470       1.00352980       0.03767748
C       -1.00180554      -0.05079727       1.10185515
C       -0.62033086      -1.09146893      -0.00009577
C        0.88147952      -1.09725746      -0.04777890
N        1.58067710      -0.01218435      -0.05052049
O        0.82827379       1.17796738      -0.00486374
H       -2.16047844       0.00841951      -1.15349801
H       -0.57033740       0.01258947      -2.01422025
H       -1.01560848       2.02436144       0.06884616
H       -0.44173410      -0.06088775       2.04549404
H       -2.08312606      -0.03581260       1.28745882
H       -1.06830261      -2.09195801      -0.00399764
H        1.46810952      -2.01905064      -0.08322781
