15
Properties=species:S:1:pos:R:3 -1533.1817347505087=T 16.725825=T 13.8156=T -7.6084=T -5.8577=T -8.042=T -0.0927=T -1.551=T -0.704=T 7.49611=T 1.25039=T 4.0704231842=T 0.970552252=T pbc="F F F"
N        0.64884910       2.74772467       0.08398790
N        1.66947166       1.84838635       0.09447563
C        2.88290745       2.31416537       0.13951407
C        4.01061663       1.42919953       0.07837773
C        5.30681249       1.84361098       0.13193553
C        6.44232423       0.95664760       0.07347170
C        7.73157546       1.35606712       0.12424220
H       -0.21720610       2.33414355       0.42038406
H        0.84251331       3.67450960       0.48320981
H        3.07418295       3.40058024       0.22525823
H        3.78033191       0.36324773      -0.01550930
H        5.51747539       2.91602235       0.22361245
H        6.22129106      -0.11281122      -0.01935003
H        7.99521063       2.41234418       0.21582979
H        8.55188381       0.64039195       0.07473022
