15
Properties=species:S:1:pos:R:3 -1510.609961310934=T 10.31108=T 10.93034=T -8.7453=T -6.7887=T -9.655=T 0.7216=T -0.226=T 1.025=T 8.88664=T -0.46554=T 5.1705013678=T 6.1406422234=T 0.153878923=T pbc="F F F"
C        1.11806593      -0.05399978       0.20265654
N        2.45984051       0.00770685      -0.34277058
C        3.22305470       1.24469769      -0.21194921
C        4.58172524       0.76776126      -0.71865910
O        4.62587694      -0.62717848      -0.35295370
C        3.33564478      -1.07551506      -0.17312065
N        3.13043768      -2.30870046       0.08411486
H        0.63164168      -0.98625098      -0.11372262
H        0.52574825       0.77926896      -0.19755560
H        1.10426766      -0.00263932       1.30802602
H        3.27323666       1.58801508       0.84119185
H        2.79869185       2.05040992      -0.82840630
H        4.65572764       0.85295983      -1.81525710
H        5.43473294       1.27176519      -0.24841595
H        2.13582754      -2.49384069       0.23890156
