15
Properties=species:S:1:pos:R:3 -1548.743712072093=T 10.519349=T 11.01931=T -8.538=T -6.5493=T -9.472=T 1.0501=T -0.0379=T 0.886=T 8.89639=T -0.26622=T 4.8921280006=T 12.5288968874=T 0.119135726=T pbc="F F F"
C        1.89939466      -0.14419390       0.20774659
C        1.02068883      -1.42333903       0.19181198
N       -0.15621416      -0.61143722      -0.28865305
C       -1.03974158      -0.14659605       0.70231044
N       -1.06561884       1.11038538       0.97410242
C       -0.00995389       1.74462772       0.15384203
C        0.74134402       0.58103844      -0.52661423
H        2.85939426      -0.20292424      -0.32125547
H        2.06565089       0.24785066       1.22096948
H        1.31843334      -2.16377102      -0.56376392
H        0.85518881      -1.93011241       1.15324030
H       -1.70267640      -0.86828974       1.18949126
H        0.63707569       2.36719500       0.79397539
H       -0.47701082       2.41360158      -0.58664423
H        0.92984519       0.74640483      -1.59677898
