16
Properties=species:S:1:pos:R:3 -1639.7748503184846=T 12.287099=T 13.52749=T -8.8489=T -6.7278=T -9.363=T 0.7876=T -0.1585=T 2.249=T 8.97944=T -1.82527=T 4.300082452=T 9.4779981826=T 0.235528738=T pbc="F F F"
C        0.99935861      -0.01254068      -0.00705617
C        2.50760784      -0.05580968       0.01696430
C        3.32342686      -0.77187112      -1.04610631
N        2.79030098      -1.45540300      -2.20173383
C        3.31288654       0.74782453      -1.01579261
C        4.47552187       1.49385860      -0.63659985
C        5.46414213       2.11734108      -0.30082083
H        0.62094113       0.90466695       0.46759947
H        0.57306030      -0.87118977       0.53447323
H        0.60157107      -0.04098675      -1.03223137
H        2.95489133      -0.06417621       1.01444688
H        4.25291137      -1.22371510      -0.69136446
H        2.02029408      -0.93178284      -2.62192836
H        2.41547730      -2.36886359      -1.93128120
H        2.70457798       1.21174451      -1.79996655
H        6.33613059       2.66516306      -0.00878235
