18
Properties=species:S:1:pos:R:3 -1804.6178461299871=T 11.488829=T 12.53285=T -8.1458=T -6.0852=T -9.577=T 0.915=T -0.0138=T 3.068=T 8.97329=T -2.71934=T 7.7632842012=T 10.8061114174=T 0.137777144=T pbc="F F F"
C        0.99754887       0.08857489       0.18082878
C        2.49525262      -0.08702298      -0.09442691
C        2.86787594      -1.51221747      -0.57538386
N        2.84052283      -1.41087528      -2.05015163
C        3.36057944      -0.08679467      -2.39176111
C        2.31296193       0.99233221      -2.51818542
C        3.06891556       0.80723358      -1.21122090
H        0.75586420       1.13824455       0.40280252
H        0.68832120      -0.51947326       1.04395112
H        0.39190843      -0.22468722      -0.68146838
H        3.04475907       0.13468480       0.83426734
H        2.14902996      -2.27176160      -0.22842256
H        3.86994784      -1.78344439      -0.18355405
H        3.37913049      -2.15113419      -2.49835038
H        4.29690549      -0.02075393      -2.95249103
H        2.55156927       1.88730687      -3.09601998
H        1.27872697       0.65365691      -2.58458033
H        3.77109988       1.59129119      -0.92648323
