14
Properties=species:S:1:pos:R:3 -1471.9049473509704=T 13.017012=T 13.51057=T -8.4081=T -6.5944=T -8.306=T 1.1582=T -0.3721=T 0.271=T 7.71685=T 0.29087=T 4.4177079702=T 6.2635619438=T 0.377419369=T pbc="F F F"
N        1.65549149      -0.42606106      -1.07365761
C        2.74013726      -0.14324069      -0.12433965
C        3.09654181       1.32398679      -0.10469245
C        2.26773335       2.33201636      -0.54662550
S        2.98869780       3.89358656      -0.34994150
C        4.42150673       3.20453082       0.33542974
C        4.33513597       1.83464798       0.39743400
H        1.37251557      -1.40458027      -0.99541004
H        1.99408797      -0.29500598      -2.03062145
H        3.66816754      -0.72304956      -0.30518337
H        2.38559396      -0.43771959       0.87881811
H        1.27187204       2.23100217      -0.96684687
H        5.24070118       3.84883499       0.64120907
H        5.13398732       1.20382147       0.78868751
