13
Properties=species:S:1:pos:R:3 -1385.7388445676686=T 11.962349=T 11.85033=T -8.0371=T -6.1753=T -8.554=T 0.6275=T -1.0297=T 0.011=T 8.0917=T 0.5304=T 3.934571724=T 11.0947508254=T 0.475810932=T pbc="F F F"
C        1.03882414      -0.02837733      -0.00088206
C        2.25651389      -0.06766069       0.00987153
C        3.66480714       0.00190814       0.00598042
N        4.43242995      -1.05571702       0.03999034
N        5.74182128      -0.64210299       0.13568205
C        5.85983858       0.77414801      -0.28639227
C        4.46010408       1.30207430       0.05804204
H       -0.03164138      -0.02597286      -0.00334756
H        6.36941708      -1.31506743      -0.30233816
H        6.05401441       0.84890716      -1.37229957
H        6.66870504       1.27694407       0.25869444
H        4.08939301       2.06273541      -0.63920658
H        4.41610278       1.72115122       1.07762538
