13
Properties=species:S:1:pos:R:3 -1346.9590425978417=T 10.813138=T 10.53272=T -7.7758=T -5.8701=T -8.965=T 0.7114=T -0.9241=T -0.1=T 8.37243=T 0.597=T 5.0039261768=T 0.36389839=T pbc="F F F"
O        1.04356022       0.06281743      -0.38485194
N        2.39458929      -0.03684632       0.09546875
C        2.94636388       1.13666016       0.09438517
N        4.27664279       1.32292859       0.48994608
C        4.55414590       2.74884761       0.64539232
C        3.33465695       3.39023980       0.04727491
C        2.41908504       2.45538945      -0.26769976
H        0.76863042      -0.86864882      -0.34758679
H        4.66800308       0.66048945       1.15241047
H        5.47960216       3.04293700       0.11741950
H        4.67790841       3.04649389       1.70565967
H        3.24403543       4.46581677      -0.09511699
H        1.43494641       2.60193499      -0.70218138
