18
Properties=species:S:1:pos:R:3 -1731.8312797732644=T 11.355058=T 12.81824=T -9.3968=T -7.2202=T -10.914=T 1.0054=T 0.0758=T 3.125=T 10.25025=T -2.83934=T 8.9001738282=T 11.6473440288=T 0.31527767=T pbc="F F F"
C        1.45290332       1.34085020       1.88476549
O        2.80124069       1.44297626       1.45617803
C        2.91136314       1.38266386       0.03309673
C        4.37147253       1.56087338      -0.35880585
C        4.91141043       2.92615841       0.00294165
C        5.96439420       3.59570847      -0.80432169
N        4.55072707       4.02603494      -0.92357932
H        1.45441800       1.39640297       2.98090863
H        0.99811815       0.38055033       1.57340123
H        0.83407728       2.16543569       1.48158085
H        2.29810808       2.18166771      -0.42997385
H        2.52869979       0.40820296      -0.33259645
H        4.45729415       1.41838215      -1.44753682
H        4.97634635       0.77883923       0.12942003
H        4.90102089       3.15319682       1.07331735
H        6.35957020       3.09677895      -1.69337808
H        6.67520300       4.24708040      -0.28950324
H        4.41257274       4.89213727      -0.39372468
