18
Properties=species:S:1:pos:R:3 -1734.8405312822476=T 11.403875=T 12.71954=T -8.6549=T -6.4995=T -9.937=T 0.9033=T -0.0087=T 3.185=T 9.49825=T -2.8702=T 8.0193648856=T 9.8155624662=T 0.149791053=T pbc="F F F"
C        2.28626222      -0.76508556      -0.94108512
O        1.94555886       0.41808063      -0.21673829
C        3.05402534       1.26146941      -0.03481534
C        3.41092876       2.31325311      -1.08907041
C        2.63959680       2.44095311      -2.38397726
C        2.77661828       2.72066646       0.22110353
N        3.49751896       3.54632287       1.16762220
H        1.36743976      -1.35811931      -1.03343115
H        3.04610800      -1.35924840      -0.40031304
H        2.67348438      -0.52922415      -1.94769761
H        3.89167981       0.79957554       0.50781849
H        4.48393818       2.52151152      -1.16627863
H        1.60907398       2.08009491      -2.26105528
H        3.10750685       1.85699595      -3.19114396
H        2.59484797       3.49041060      -2.71152190
H        1.71697011       2.98505249       0.14177251
H        4.50410450       3.38857700       1.08359891
H        3.23983724       3.29454384       2.12624233
