12
Properties=species:S:1:pos:R:3 -1225.9642696958736=T 8.192429=T 9.10969=T -11.6583=T -9.1908=T -11.842=T 0.7656=T -0.2657=T 1.469=T 11.39338=T -1.10605=T 5.3855922806=T 14.4863010652=T 0.457021435=T pbc="F F F"
C        0.94535804      -0.05313177      -0.00408113
C        2.47276837      -0.02850875      -0.00294296
C        3.02251288       1.41204171       0.00803795
C        4.48109819       1.46611086       0.00930661
N        5.64740118       1.49069014       0.01025675
H        0.57176612      -1.08609493      -0.01191533
H        0.53567114       0.45605793      -0.88942126
H        0.53455338       0.44298357       0.88813792
H        2.86437993      -0.55141224      -0.88844229
H        2.86326702      -0.56441740       0.87524395
H        2.65758476       1.95410813       0.89573192
H        2.65862898       1.96718273      -0.87197213
