13
Properties=species:S:1:pos:R:3 -1391.1618409180962=T 9.794882=T 10.65404=T -9.8865=T -7.9602=T -10.935=T 0.7553=T -0.249=T 0.122=T 9.96651=T 0.56573=T 4.3501356002=T 12.1154283746=T 0.47802113=T pbc="F F F"
C        1.36478135      -0.54524186      -0.10006687
N        2.63444140       0.06935383       0.25433813
C        3.22287424       1.01994077      -0.51819728
O        2.76875399       1.46169165      -1.56922955
C        4.57996866       1.56741503      -0.00112128
C        5.05720854       1.00430394       1.25126653
N        5.37725641       0.50612498       2.25746709
H        1.47681652      -1.63228595      -0.21615780
H        1.04009286      -0.11220390      -1.05278369
H        0.60328459      -0.34216652       0.66598490
H        3.10569197      -0.22140520       1.10831421
H        4.47091110       2.65745603       0.09575494
H        5.31990836       1.39118720      -0.79542935
