20
Properties=species:S:1:pos:R:3 -1935.1501646670692=T 12.240382=T 13.49677=T -8.6652=T -6.4934=T -10.167=T 0.9216=T 0.0031=T 3.=T 9.48645=T -2.67201=T 8.328635564=T 10.5011058574=T 0.15435061=T pbc="F F F"
C        1.12053244      -0.05079533       0.25786235
C        2.62328290       0.00609209      -0.04543563
C        2.94981220      -0.82494828      -1.29295567
C        3.09742170       1.45555569      -0.21085651
C        3.10316019       2.31695329       1.08474444
N        4.56544971       2.07817609       1.21614150
C        4.63905034       1.66553433      -0.21117851
H        0.86119096       0.52036722       1.16085224
H        0.78825898      -1.08795670       0.41318324
H        0.53802399       0.36333602      -0.58156490
H        3.16981519      -0.42416765       0.81411332
H        2.41443681      -0.43241071      -2.17314797
H        2.64570642      -1.87372095      -1.15946691
H        4.02501362      -0.81697931      -1.52271593
H        2.57247025       1.91486751      -1.06365918
H        2.51034218       1.95090394       1.93907374
H        2.82384782       3.36765789       0.88405687
H        5.11820562       2.90315819       1.45663346
H        4.94765244       2.46701608      -0.90771493
H        5.27062626       0.77948060      -0.39000503
