15
Properties=species:S:1:pos:R:3 -1573.02400843312=T 11.92317=T 13.13441=T -9.5481=T -7.338=T -9.193=T 1.0635=T -0.1578=T 1.14=T 8.69847=T -0.52617=T 4.363377305=T 6.250568211=T 0.461547654=T pbc="F F F"
C        0.75332939       0.02499182       0.12233556
C        2.24357405       0.03569329       0.26940004
C        3.06063233       0.93182490      -0.29423364
C        4.57147657       0.93543911      -0.12934935
O        5.08259724      -0.20831680       0.56786318
C        5.22931655       1.11408213      -1.43209334
C        5.76077183       1.22600371      -2.51783084
H        0.40656443      -0.92657721      -0.31184953
H        0.39914537       0.84385877      -0.51893212
H        0.26054103       0.11690686       1.10358712
H        2.68730461      -0.74586408       0.89541529
H        2.66160388       1.73959858      -0.91694629
H        4.85125541       1.79202724       0.51230054
H        5.02302162      -0.96345957      -0.04701946
H        6.23923570       1.32999125      -3.47027716
