14
Properties=species:S:1:pos:R:3 -1448.4015339776922=T 10.462546=T 11.1476=T -9.3214=T -7.3278=T -10.132=T 0.7564=T -0.3572=T 0.764=T 9.40857=T -0.18239=T 5.0227596502=T 11.3217567928=T 0.203168024=T pbc="F F F"
N        2.28312819      -1.25095081       0.79898042
C        2.36805931      -0.32621646      -0.23225908
N        1.81244512      -0.39857357      -1.39303379
C        3.16877706       0.92292589       0.09029392
C        4.69780541       0.72419000      -0.05445353
C        5.25518788      -0.16934529       0.95600294
N        5.65082100      -0.88621977       1.78780899
H        3.01431997      -1.24205346       1.50755459
H        1.97315170      -2.18606484       0.54698260
H        1.30787162      -1.28925932      -1.51184334
H        2.93925554       1.27904925       1.10579809
H        2.85979139       1.69144008      -0.62734214
H        5.20822845       1.69539312       0.03245860
H        4.92921738       0.32157519      -1.05268827
