15
Properties=species:S:1:pos:R:3 -1507.0864028850644=T 10.83185=T 12.01742=T -10.1408=T -7.7193=T -9.891=T 1.081=T 0.0258=T 2.271=T 9.78549=T -1.87508=T 4.4110375234=T 10.347437609=T 0.40422243=T pbc="F F F"
C        2.70321390      -0.78024275       1.28945787
O        2.38209705      -0.11500565       0.06150040
C        2.81279481       1.22718346       0.03754778
O        4.22080090       1.38803500       0.00041923
C        4.77982073       0.93495687      -1.24712410
C        6.22064963       1.13176559      -1.24667284
C        7.42335695       1.28210684      -1.28260919
H        2.29101447      -1.79332746       1.21351234
H        2.24060515      -0.26133385       2.14805898
H        3.79150500      -0.83490017       1.44847537
H        2.49760086       1.76503925       0.94905031
H        2.34149467       1.66478300      -0.86055505
H        4.32479962       1.49943010      -2.08508042
H        4.54709272      -0.13312001      -1.40431658
H        8.48516353       1.41919977      -1.30660410
