20
Properties=species:S:1:pos:R:3 -1897.9373248518905=T 11.787914=T 12.87785=T -9.2536=T -7.1256=T -10.535=T 0.7331=T -0.2513=T 2.816=T 9.97978=T -2.50726=T 8.5929365202=T 10.9065400774=T 0.082373206=T pbc="F F F"
C        0.86956266      -0.68274196       0.02939599
C        2.38355390      -0.42682526       0.13591247
C        2.97298486      -1.26011278       1.27719085
O        3.03671946      -0.88073342      -1.06517655
C        2.69388658       1.07153529       0.37880938
C        2.18981345       2.04241058      -0.69368382
N        2.77973794       1.73042835      -2.01562826
H        0.43505749      -0.16053400      -0.83480809
H        0.33512312      -0.35900908       0.93632617
H        0.69318428      -1.75763434      -0.11397650
H        2.49023332      -1.02384707       2.23666223
H        4.05273795      -1.07417437       1.36752346
H        2.82826392      -2.32918231       1.06659625
H        2.90770121      -0.15394801      -1.72296383
H        3.78947552       1.17399085       0.47331453
H        2.26549025       1.37815016       1.34759875
H        2.39274237       3.07954702      -0.36515572
H        1.09708974       1.95504957      -0.79473535
H        3.77034618       1.98960175      -2.02364440
H        2.32868581       2.28245904      -2.74795754
