17
Properties=species:S:1:pos:R:3 -1767.4570875259847=T 12.301704=T 13.46212=T -9.6459=T -7.4336=T -9.585=T 0.9264=T 0.0665=T 2.42=T 9.14299=T -1.95399=T 4.310063325=T 10.2190253088=T 0.294694048=T pbc="F F F"
C        0.87293700      -0.01980946       0.14583064
C        2.39760155      -0.00395661      -0.00227897
C        3.18354774       1.07599320       0.83254585
C        4.22259813      -0.00603902       1.21946846
C        3.20291113      -1.09428260       0.79990993
C        2.78356310       0.02032319      -1.40851527
C        3.09890380       0.03729241      -2.58229615
H        0.59676219      -0.03849610       1.21009546
H        0.44217149      -0.90566186      -0.34249893
H        0.42633625       0.87273128      -0.31534702
H        2.57862707       1.39539025       1.69387058
H        3.53457805       1.96073575       0.28668389
H        5.09386734       0.01177562       0.55069725
H        4.57394363      -0.01857472       2.25959145
H        3.56937244      -1.95597991       0.22795000
H        2.60388517      -1.44990385       1.65111551
H        3.37544394       0.05257244      -3.61652269
