17
Properties=species:S:1:pos:R:3 -1660.424589672509=T 12.63131=T 14.51479=T -9.2322=T -6.9045=T -9.197=T 0.8377=T -0.1777=T 2.489=T 8.78478=T -1.99752=T 4.167665404=T 10.3630102506=T 0.413485429=T pbc="F F F"
N        0.92255081       0.02478012      -0.01001382
C        2.39023341      -0.02532751      -0.03289499
C        2.96008581       1.40558528      -0.01253261
C        4.41752504       1.43733286      -0.00793627
C        5.63375012       1.43945866       0.00939104
C        7.09427871       1.45668436      -0.00702083
N        7.62056972       2.83746816       0.03329876
H        0.54361786      -0.91583543       0.11575984
H        0.56911670       0.35541127      -0.91204599
H        2.82094879      -0.56560112      -0.89841703
H        2.72854715      -0.55067718       0.87297149
H        2.55970396       1.92839779       0.87140383
H        2.58343157       1.95488177      -0.89402081
H        7.43639105       0.86736085      -0.88321462
H        7.47111029       0.92953229       0.88641876
H        7.25480852       3.35645497      -0.76948213
H        8.63736049       2.80795285      -0.07872461
