16
Properties=species:S:1:pos:R:3 -1619.30090520673=T 10.971577=T 11.45023=T -8.9181=T -6.7678=T -9.192=T 1.0284=T -0.1172=T 1.231=T 8.72323=T -0.61096=T 6.2272092486=T 0.353214545=T pbc="F F F"
N        0.95057701       0.20761590       0.11000551
C        2.42114119       0.12032056       0.25387377
C        3.08490704       1.29670357      -0.46675027
O        3.09888285       1.09351368      -1.88628669
C        3.94892480       0.00349491      -2.23895624
C        3.72064696      -1.22095961      -1.39995800
C        3.01558624      -1.17276582      -0.26046402
H        0.51189524      -0.58566078       0.58665530
H        0.72547160       0.09313453      -0.88409682
H        2.64373197       0.22080599       1.33099316
H        2.51227990       2.21773265      -0.29529058
H        4.11878374       1.43406416      -0.09342895
H        5.01607111       0.31372812      -2.17486228
H        3.74077590      -0.20973153      -3.29943867
H        4.15114731      -2.15858041      -1.76295672
H        2.83191715      -2.08356591       0.31734151
