18
Properties=species:S:1:pos:R:3 -1761.9874751239315=T 11.03945=T 12.12209=T -9.0386=T -6.8472=T -10.449=T 0.9049=T -0.059=T 2.995=T 9.87377=T -2.71875=T 8.3844044668=T 10.788703783=T 0.18134912=T pbc="F F F"
C        1.04705207      -0.12878700       0.17442043
C        2.53165358       0.09741192      -0.07797822
C        3.15819112       1.22379367       0.77158252
C        4.53147321       0.66295875       1.17948859
N        5.54301523       0.96936152       0.15622404
C        4.17042323      -0.82311554       1.32959266
O        3.28972825      -1.10823867       0.23335526
H        0.67727506      -0.97547094      -0.41961884
H        0.46954485       0.76582862      -0.10343241
H        0.86333433      -0.34360273       1.23759643
H        2.68804789       0.29035933      -1.15510668
H        2.54536891       1.40334239       1.66854495
H        3.25609128       2.16930114       0.22314305
H        4.87402014       1.09322362       2.13337638
H        5.30087297       0.48013797      -0.71146342
H        6.44736195       0.58721093       0.44582028
H        5.03734976      -1.49563267       1.24718292
H        3.66912617      -1.01053230       2.30133205
