21
Properties=species:S:1:pos:R:3 -2066.502220178215=T 12.731516=T 14.28661=T -9.7138=T -7.5597=T -10.884=T 0.9365=T 0.0504=T 2.936=T 10.49563=T -2.5699=T 8.7484025656=T 10.6281047172=T 0.205806057=T pbc="F F F"
C        2.10446385      -1.33206390      -0.20864650
C        1.79650572       0.14841319       0.03856158
C        3.03096092       1.01692375       0.25602303
C        3.90758501       0.68069126       1.45784081
C        3.19553529       0.80207188       2.80901465
C        3.72987214       1.53430951      -0.98314682
C        2.91923881       2.47924413      -0.11968462
H        1.18338709      -1.89580852      -0.41504062
H        2.58734125      -1.80030077       0.66193153
H        2.77775825      -1.45790180      -1.07018804
H        1.12000612       0.24650081       0.90520570
H        1.23831432       0.55139939      -0.82309105
H        4.78083830       1.35395887       1.44647773
H        4.31486832      -0.33869153       1.34364353
H        2.77038154       1.80829350       2.94320777
H        3.89291384       0.61729496       3.63872832
H        2.37302353       0.07806000       2.90462630
H        3.31994876       1.25587165      -1.95588316
H        4.81722934       1.62763208      -0.96197376
H        3.46256281       3.20645108       0.48676474
H        1.96685479       2.84064047      -0.51183112
