18
Properties=species:S:1:pos:R:3 -1778.7598098659655=T 11.411822=T 12.45816=T -9.488=T -7.4312=T -10.515=T 0.7243=T -0.2161=T 0.389=T 9.86827=T 0.18934=T 4.3381709512=T 6.1813344286=T 0.189832921=T pbc="F F F"
C        3.13207142      -1.14751692       0.37116905
C        2.38091222       0.03259653       0.98674565
C        2.92884140       1.40994804       0.57677814
C        2.05719447       2.55691383       1.09748372
N        4.31702433       1.57995421       1.01960867
C        5.36911612       1.80399605       0.17787663
O        5.30897142       1.86307746      -1.04624942
H        2.70116239      -2.10329170       0.70050258
H        4.19364357      -1.14071977       0.65705181
H        3.08643880      -1.11645154      -0.72735547
H        2.39091959      -0.04211188       2.08960723
H        1.31947519      -0.00584170       0.69163330
H        2.98357771       1.46324863      -0.52178421
H        2.01181464       2.55320601       2.19830642
H        1.02870903       2.46109528       0.72136888
H        2.45508502       3.52724047       0.77178375
H        4.50883400       1.58282491       2.01931397
H        6.32363869       1.92886210       0.74153929
