15
Properties=species:S:1:pos:R:3 -1600.6202084207418=T 11.189506=T 11.62482=T -8.5185=T -6.4026=T -8.821=T 1.2706=T -0.1989=T 1.187=T 8.61861=T -0.60889=T 5.6894323722=T 6.6520100818=T 0.221197101=T pbc="F F F"
C        1.06001857       1.10953740      -0.48184459
O       -0.13751702       1.63511874       0.13164766
C       -1.28293759       0.90054366      -0.00465860
C       -1.45849620      -0.42734979      -0.11638456
C       -0.49495484      -1.57564222      -0.00127356
C        0.95550930      -1.30578000       0.27697510
C        1.62380404      -0.15889157       0.09797734
H        1.78886874       1.92514329      -0.38431598
H        0.84963949       0.97057604      -1.55885504
H       -2.15315404       1.56292500      -0.00571671
H       -2.50281839      -0.72488126      -0.24203906
H       -0.55858124      -2.21491573      -0.90613962
H       -0.87292198      -2.23569788       0.80227394
H        1.51529877      -2.16489541       0.66035068
H        2.68841237      -0.13549028       0.34673300
