10
Properties=species:S:1:pos:R:3 -1209.626568425086=T 12.205975=T 12.37615=T -9.4215=T -7.604=T -8.998=T -0.0609=T -1.6395=T -0.678=T 8.47675=T 1.33815=T 4.3167709676=T 10.3437924206=T 0.357914293=T pbc="F F F"
N        0.87213736       0.01319172      -0.02569925
C        2.04178270       0.02659866      -0.01534113
C        3.46471654       0.03384300      -0.00269808
C        4.22169930       1.19454958       0.00451394
S        5.90449032       0.84299084       0.01938268
C        5.61183852      -0.86591487       0.01606770
C        4.27232303      -1.15142074       0.00401250
H        3.86831572       2.22079939       0.00182192
H        6.45077875      -1.55517256       0.02326631
H        3.86007776      -2.15812503      -0.00009658
