14
Properties=species:S:1:pos:R:3 -1341.4305685768572=T 8.822164=T 9.57463=T -8.6924=T -6.4801=T -9.963=T 0.9909=T 0.0534=T 3.276=T 9.52179=T -2.96621=T 8.1189380422=T 11.6930452684=T 0.183019557=T pbc="F F F"
C        0.98327078      -0.00320291      -0.07406357
C        2.49252939       0.01123032       0.01036723
C        3.32745538      -0.67977019      -1.05560326
C        3.32504908       0.82162829      -0.96921598
N        4.54853412       1.51974036      -0.62785088
H        0.53873632       0.82686029       0.49668595
H        0.56371515      -0.94320380       0.31735929
H        0.64929387       0.09529381      -1.11828013
H        2.90548884      -0.04341360       1.02264147
H        2.80989406      -1.15482092      -1.89099442
H        4.23417126      -1.19964158      -0.73846587
H        2.75619601       1.33927393      -1.74872567
H        5.15781083       0.91553776      -0.07140222
H        4.33973490       2.33757824      -0.04808194
