19
Properties=species:S:1:pos:R:3 -1826.845702876282=T 11.179997=T 12.79017=T -9.9864=T -7.6757=T -11.822=T 0.803=T -0.2161=T 2.63=T 11.57463=T -2.35912=T 9.4472496546=T 0.07686663=T pbc="F F F"
C        1.47445504      -0.70882325      -0.09187522
C        2.98565728      -0.49452644       0.00323181
C        3.39609200       0.96767342      -0.19843193
C        4.90484434       1.20229073      -0.16659501
O        5.59505683       0.51050682      -1.23570095
C        5.27912833       2.68427105      -0.21367503
O        6.69037871       2.86670490      -0.23377859
H        1.21024770      -1.76429428       0.06478729
H        1.09028239      -0.41302023      -1.08041558
H        0.93639139      -0.11484774       0.66303325
H        3.50214747      -1.12083156      -0.74109897
H        3.34710250      -0.83302265       0.98904734
H        2.92817056       1.59389429       0.58188105
H        2.99730453       1.33969424      -1.16194406
H        5.33612027       0.76321632       0.74888937
H        5.14043034       0.73980057      -2.06851168
H        4.89587454       3.20262275       0.67908618
H        4.80413688       3.15119935      -1.10336810
H        7.02867891       2.15983170      -0.81922119
