17
Properties=species:S:1:pos:R:3 -1773.0881727240578=T 13.54048=T 14.27457=T -8.5363=T -6.5707=T -8.356=T 0.9096=T -0.6342=T 0.688=T 7.86812=T -0.09226=T 4.0708819324=T 11.208396393=T 0.440124535=T pbc="F F F"
C        2.67273660      -0.66936550       1.42766688
C        2.47044592      -0.02073919       0.05056103
C        2.92173375       1.42863812       0.00886333
C        2.09867635       2.50315637      -0.07958376
C        0.60613054       2.50654822      -0.15873685
C        4.33266641       1.63249595       0.08742085
C        5.54424510       1.74426712       0.14894879
H        2.37510606      -1.72744717       1.40725685
H        2.07285971      -0.15873135       2.19488649
H        3.72696493      -0.61729148       1.73436700
H        1.41461115      -0.09145898      -0.24557151
H        3.04703137      -0.58157672      -0.70290039
H        2.57534852       3.48808312      -0.09427344
H        0.16415197       1.50346033      -0.12674598
H        0.26785124       2.99941396      -1.08510420
H        0.17864242       3.09104521       0.67235282
H        6.60640796       1.86521200       0.20602208
