20
Properties=species:S:1:pos:R:3 -1938.7550458616313=T 13.513064=T 15.04749=T -8.5579=T -6.5031=T -9.1=T 0.9877=T 0.0827=T 1.445=T 8.58141=T -0.81637=T 6.3573697514=T 0.401722858=T pbc="F F F"
C        0.97266480      -0.03523982      -0.17342932
C        2.49327774      -0.00964656      -0.07150902
N        3.00193318       1.36248912      -0.11149772
C        4.45613377       1.44122623       0.06481317
C        4.92597701       2.86541033       0.03695023
C        5.60073531       3.45988941       1.03042859
C        6.08549132       4.87734841       1.02305719
H        0.59846148      -1.06851223      -0.18137429
H        0.63731989       0.46708859      -1.09157933
H        0.50959781       0.47865145       0.68361165
H        2.93331076      -0.55212601      -0.92630816
H        2.81661893      -0.55663447       0.84315609
H        2.55664015       1.90778040       0.63340649
H        4.91342838       0.88531709      -0.77511794
H        4.81187853       0.94856574       0.99750461
H        4.67045863       3.43467010      -0.86476540
H        5.83204252       2.87074714       1.92741896
H        5.80655095       5.39530108       0.09496239
H        7.18186809       4.92295958       1.12519453
H        5.67044073       5.44399442       1.87216729
