17
Properties=species:S:1:pos:R:3 -1622.6498761016292=T 10.796209=T 11.79924=T -8.9428=T -6.8002=T -10.043=T 0.7627=T -0.2256=T 2.946=T 9.66673=T -2.59956=T 7.9536027112=T 11.45258682=T 0.215474579=T pbc="F F F"
N        1.09831560       0.14847568      -0.32914493
C        2.52585998       0.03561551      -0.11499264
C        3.33324841      -0.74942700      -1.12419013
C        3.43755374       0.76487550      -1.09004352
N        2.81666827       1.56523066      -2.13034606
C        4.68226171       1.42702663      -0.52716867
O        5.60172609       1.79976759      -1.55627937
H        0.68644664       0.80610014       0.33636313
H        0.63795011      -0.75262496      -0.18637238
H        2.88593178      -0.00926256       0.92131660
H        2.77947025      -1.18160609      -1.96010085
H        4.17046585      -1.34773523      -0.76080609
H        1.79834654       1.48956444      -2.02059001
H        3.03495126       1.17235902      -3.04881936
H        5.22443795       0.74421420       0.14412167
H        4.37648516       2.31743842       0.05683429
H        5.08312067       2.37457806      -2.15291167
