19
Properties=species:S:1:pos:R:3 -1812.3820859892564=T 11.314693=T 12.78268=T -9.9914=T -7.8329=T -11.829=T 0.9797=T 0.068=T 3.203=T 11.15514=T -2.99388=T 9.5706281232=T 11.2773202104=T 0.104404802=T pbc="F F F"
C       -0.75439885       5.05411795      -0.11836327
C       -0.16341655       4.11668457       0.93624316
C        0.46345845       2.88062406       0.31122341
O        1.00003626       2.05210184       1.35656922
C        1.56778592       0.85290240       0.87563264
O        2.76385058       1.02356489       0.14039616
C        3.85290049       1.47144952       0.95212431
H       -1.20096461       5.94248005       0.34870142
H       -1.54180245       4.55547817      -0.70378779
H        0.01578289       5.40072161      -0.82418040
H       -0.94288245       3.79977792       1.64735617
H        0.60543379       4.64229934       1.52477293
H       -0.29472533       2.30500794      -0.25743140
H        1.26416020       3.16473201      -0.39482831
H        0.87899109       0.33958696       0.18063674
H        1.74615328       0.23796906       1.77665249
H        4.73114883       1.52695292       0.29746288
H        4.05459788       0.75677902       1.77090789
H        3.65557059       2.46427980       1.38718174
