12
Properties=species:S:1:pos:R:3 -1199.8512338328599=T 10.34093=T 11.47485=T -11.0104=T -9.0041=T -10.641=T 0.7646=T -0.9264=T -0.764=T 10.10748=T -0.42582=T 4.9849687174=T 9.4871855452=T 0.149399353=T pbc="F F F"
C        1.10728669       0.08230891      -0.00567306
S        2.89613791      -0.10920801      -0.02239029
O        3.30970325      -0.70033825       1.25320589
O        3.28838172      -0.67496076      -1.31610274
C        3.43130425       1.67280619      -0.00926373
C        4.87556269       1.77295718      -0.02008429
N        6.03699402       1.87333477      -0.02858512
H        0.79086848       0.61529572      -0.90883740
H        0.80592739       0.59707824       0.91307093
H        0.71574477      -0.94216164      -0.01269427
H        3.01817862       2.12498302       0.90272548
H        3.00338021       2.14275463      -0.90530139
