14
Properties=species:S:1:pos:R:3 -1497.7981335068473=T 14.332752=T 15.74039=T -8.774=T -6.6471=T -8.306=T 0.8532=T -0.5979=T 1.175=T 7.95042=T -0.71203=T 3.114156362=T 7.691843468=T 1.98221326=T pbc="F F F"
C        0.95574194      -0.00958646      -0.00170388
C        2.40518489      -0.01286781      -0.00286942
C        3.62886661      -0.01002505      -0.00059637
C        4.98787417      -0.00034738       0.00263236
C        6.21170167       0.00857174       0.01391524
C        7.66675028       0.01553892      -0.01448140
N        8.20850987       1.38924203       0.02391332
H        0.56469392       1.01935462       0.00872929
H        0.55804517      -0.52806819       0.88409397
H        0.55469651      -0.51221942      -0.89507427
H        7.99218278      -0.58014426      -0.89347825
H        8.04194379      -0.51938169       0.87563634
H        7.85738780       1.91047269      -0.78383525
H        9.22582061       1.34605027      -0.07656168
