14
Properties=species:S:1:pos:R:3 -1412.151936839978=T 11.294211=T 11.90253=T -9.0267=T -7.0085=T -9.536=T 1.0273=T -0.7264=T 0.353=T 8.96291=T 0.17212=T 4.8125909816=T 5.4578389228=T 0.392385284=T pbc="F F F"
C        1.20889938       1.37755776      -1.57394936
N        2.40769383       1.70596147      -1.24585799
N        2.89089121       1.30624653      -0.03562835
C        4.34596172       1.25108258       0.04906228
C        4.93368894       2.67452066      -0.01416422
C        6.38859255       2.67051837       0.07106079
N        7.55202989       2.64456452       0.15203443
H        0.82439079       1.75209400      -2.52238153
H        0.55790724       0.75127903      -0.94211968
H        2.41520176       0.49893086       0.38542541
H        4.78993213       0.63534761      -0.75293409
H        4.59867096       0.78670122       1.01198172
H        4.52423953       3.28309416       0.80635460
H        4.62573007       3.14707126      -0.95867402
