17
Properties=species:S:1:pos:R:3 -1723.2097301200788=T 12.137208=T 13.43133=T -8.227=T -6.2047=T -8.933=T 1.0137=T 0.1306=T 1.374=T 8.4733=T -0.80005=T 6.0887416838=T 0.394254939=T pbc="F F F"
C        0.35420075       3.25593968      -0.73507345
C        1.47397799       2.60785567       0.02066442
C        2.73380946       3.06185407       0.00164766
O        3.75044439       2.43329623       0.68834641
C        4.98573425       3.12240311       0.65387023
C        6.20996241       2.26818599       0.72347808
C        5.86072883       2.98881075      -0.56712610
H       -0.46134425       3.56734941      -0.06203575
H       -0.09073173       2.56589325      -1.47091868
H        0.69802727       4.14766848      -1.27943134
H        1.25190110       1.71484624       0.61255705
H        3.03252072       3.94743877      -0.57082777
H        4.97633431       4.07546854       1.19370533
H        6.04288947       1.19136334       0.74716701
H        7.05243292       2.62151285       1.31755531
H        6.46029586       3.84645895      -0.87383578
H        5.47062624       2.37770467      -1.38140263
