15
Properties=species:S:1:pos:R:3 -1610.4957612868639=T 11.44321=T 11.82914=T -7.8548=T -5.8234=T -8.029=T 0.7892=T -0.7636=T 0.413=T 7.58519=T 0.14852=T 4.300578396=T 6.7109654248=T 0.322735453=T pbc="F F F"
C        0.97893774      -0.00435235      -0.19324144
C        2.46872803      -0.00508823       0.00373848
C        3.18904584       1.14421429       0.05665983
O        4.54056350       1.18832945       0.24531244
C        5.22498209      -0.01020328      -0.21349331
C        4.53863090      -1.25032925       0.27955110
C        3.19026110      -1.23562708       0.31050731
H        0.69131133      -0.54996151      -1.10616880
H        0.58648953       1.01829395      -0.27904050
H        0.46570820      -0.49422881       0.64998031
H        2.74319153       2.14153596       0.05971372
H        6.25247527       0.08556685       0.15894825
H        5.24627856       0.02405616      -1.32397032
H        5.12835435      -2.11406993       0.58850247
H        2.62101202      -2.10889622       0.63866045
