17
Properties=species:S:1:pos:R:3 -1635.704698077146=T 10.750018=T 11.94605=T -8.6501=T -6.5074=T -9.909=T 0.9866=T 0.096=T 3.366=T 9.20995=T -3.05653=T 8.040306121=T 11.8122454088=T 0.260703655=T pbc="F F F"
C        2.87552101      -1.10988264      -0.47265660
N        2.36175143       0.12709776       0.11758355
C        3.34879586       1.17647845       0.17876134
C        3.46700723       2.09376529      -1.02052378
C        2.87153601       2.60408259       0.27451581
C        3.61311134       3.61311886       1.12161655
H        2.09357195      -1.88175728      -0.44587563
H        3.78057077      -1.51236836       0.02892487
H        3.13316576      -0.92772774      -1.52680217
H        2.00786029      -0.06229357       1.05858035
H        4.29625602       0.95105211       0.69703575
H        2.78429190       1.90160177      -1.84885327
H        4.46108404       2.44588752      -1.30180462
H        1.78315491       2.70727144       0.26267103
H        4.69806676       3.43143266       1.09721905
H        3.29104713       3.57093792       2.17383396
H        3.44232758       4.63856324       0.75932381
