19
Properties=species:S:1:pos:R:3 -1809.816924749676=T 12.813736=T 13.5415=T -8.5849=T -6.5365=T -9.189=T 1.1618=T -0.1161=T 0.871=T 8.73959=T -0.25974=T 4.9710574882=T 5.6871882256=T 0.179951282=T pbc="F F F"
C        3.09827410      -0.94148022      -0.74786473
C        2.67245063       0.01758702       0.36448600
C        3.06849744       1.48896789       0.11057401
C        2.45160623       2.41325055       1.17464475
C        4.56275650       1.65222021       0.07780186
N        5.17687112       2.06029348      -0.97383384
N        6.55578796       2.10810048      -0.94572584
H        2.80093581      -1.97415058      -0.51631295
H        4.18752753      -0.92724607      -0.89685671
H        2.63428341      -0.66451403      -1.70675085
H        3.10540148      -0.30677453       1.32804498
H        1.57786053      -0.02602809       0.49473396
H        2.69534484       1.78636215      -0.88407004
H        2.83402628       2.17072773       2.17912280
H        1.35728915       2.30235761       1.19969028
H        2.68557258       3.46727637       0.96911797
H        5.11804157       1.40205559       1.00583874
H        6.88756230       2.82094523      -1.59288037
H        6.96409053       2.23396923      -0.01001002
