15
Properties=species:S:1:pos:R:3 -1572.1838884091617=T 11.509746=T 13.26174=T -9.5304=T -7.2676=T -9.294=T 0.7956=T -0.0771=T 2.249=T 8.87119=T -1.79241=T 4.1307671704=T 10.0520161668=T 0.599034832=T pbc="F F F"
C        0.95317650      -0.00770277      -0.01117043
C        2.40830838      -0.01597406      -0.00440832
C        3.62528079      -0.02050899      -0.00186355
C        5.07277586      -0.02868267       0.01908943
C        5.82704971       1.04331552       0.85437734
O        6.67957726       0.02928925       1.45517832
C        5.81450362      -1.02611891       0.95248954
H        0.55873116       0.89016396       0.48736928
H        0.54875723      -0.88534768       0.51428252
H        0.55958790      -0.02052502      -1.03827521
H        5.47590636      -0.07972050      -1.00392335
H        5.18572761       1.53720832       1.60439817
H        6.40703861       1.79333022       0.29608248
H        6.38505336      -1.83228339       0.46780684
H        5.16780565      -1.43908329       1.74513694
