14
Properties=species:S:1:pos:R:3 -1488.3349456890408=T 11.10501=T 11.71496=T -9.8885=T -7.7695=T -9.531=T 0.0639=T -1.5399=T -0.168=T 8.99001=T 0.73102=T 4.952124826=T 5.1377194694=T 0.257316659=T pbc="F F F"
C        0.85565413       0.18384539      -0.14088186
C        2.34729297       0.06465645      -0.10685102
C        2.93283649      -1.32128285      -0.27609358
O        2.30727645      -2.08216255      -1.31494572
C        3.13529693       1.14642191       0.09560892
C        4.55634629       1.09883342       0.12793796
N        5.72688538       1.09397740       0.16369833
H        0.52168958       1.21217156       0.04231933
H        0.39324917      -0.47118181       0.61660174
H        0.47270093      -0.14070504      -1.12038050
H        2.86761319      -1.84907375       0.69498675
H        3.99850327      -1.25364083      -0.53515988
H        1.52136328      -2.52144902      -0.94854680
H        2.69286195       2.13195974       0.26021633
