17
Properties=species:S:1:pos:R:3 -1766.8206257094193=T 12.324297=T 13.77303=T -9.8904=T -7.5498=T -9.786=T 0.9492=T 0.0553=T 2.313=T 9.42218=T -1.94957=T 4.3656338502=T 10.4825575518=T 0.398656565=T pbc="F F F"
C        3.57137454      -1.09295516      -2.44511181
C        3.58645937      -0.61464061      -1.32895079
C        3.62805604      -0.00866037      -0.00327961
C        4.37419670       1.33029177       0.03096474
C        3.74869088       2.57121573      -0.66264700
C        4.26268097       3.43408286       0.52153249
C        4.38194751       2.13351445       1.36099269
H        3.55212233      -1.52225061      -3.42567325
H        4.10446071      -0.71152690       0.70224920
H        2.59644847       0.14343606       0.36033792
H        5.40511364       1.18147154      -0.32803544
H        2.64929595       2.50626756      -0.66256277
H        4.08653584       2.81906217      -1.67742089
H        5.25034556       3.86745112       0.30775009
H        3.60458204       4.22754787       0.90015977
H        5.24756884       2.01861328       2.02791074
H        3.46269060       1.94620923       1.93829390
