12
Properties=species:S:1:pos:R:3 -1297.4697061047698=T 10.172121=T 10.69319=T -9.4125=T -7.3797=T -10.042=T 1.2401=T -0.5204=T 0.342=T 10.00402=T 0.26806=T 4.3886456518=T 10.9885816136=T 0.275082868=T pbc="F F F"
C        0.93215089      -0.01997130       0.14168733
C        2.14180346       0.00573629       0.05241888
C        3.59361783       0.01325521      -0.04434775
C        4.18661843      -1.22459328      -0.75499181
C        4.68952383      -0.59256261      -2.02332121
N        4.60776085       0.68787561      -2.06099227
O        4.03709342       1.16907027      -0.88024578
H       -0.13636152      -0.02960140       0.21421349
H        4.03709115       0.17857700       0.94854434
H        3.43049470      -1.99941402      -0.93917741
H        5.00992710      -1.68073725      -0.18412120
H        5.12222987      -1.11908453      -2.87302662
