15
Properties=species:S:1:pos:R:3 -1495.6225752316682=T 10.193791=T 11.23622=T -9.7655=T -7.5884=T -10.6=T 0.7908=T -0.2795=T 1.3=T 9.86816=T -0.90326=T 5.3867949448=T 12.207723553=T 0.294182627=T pbc="F F F"
C        1.13780037      -0.04907986       0.37525741
N        2.59482955      -0.01109865       0.22514115
C        3.10668204       1.26628277      -0.26838763
C        4.62096360       1.31956675       0.02709328
O        4.86365781       0.99951939       1.38511468
C        5.33914127       0.39377999      -0.88424318
N        5.86398541      -0.35842828      -1.60543922
H        0.83608583      -1.04678658       0.71993272
H        0.58538964       0.18126417      -0.55607508
H        0.83228094       0.67780767       1.14186343
H        2.89326690      -0.76056821      -0.40607655
H        2.63432058       2.07114294       0.31513924
H        2.91217491       1.45845548      -1.34138609
H        5.00377278       2.33559741      -0.16035909
H        4.17760836       0.31548501       1.57783494
