13
Properties=species:S:1:pos:R:3 -1356.7359978061584=T 10.359058=T 11.01535=T -9.2328=T -7.1745=T -9.953=T 0.7387=T -0.4164=T 0.396=T 9.61063=T 0.22465=T 4.2950982148=T 11.2089791272=T 0.24833303=T pbc="F F F"
N        1.08711582       0.25273933      -0.37705633
C        2.51827169       0.01703508      -0.07048716
C        3.08716381      -0.94011295      -1.01306087
C        3.53513994      -1.73780956      -1.80962426
C        3.34559400       1.34678208      -0.12988047
N        2.75036292       2.30543073      -0.88335177
O        4.41712849       1.45363641       0.45445124
H        0.58844258       0.48766291       0.48436160
H        0.67006229      -0.60718013      -0.73878259
H        2.68994909      -0.36653815       0.95193724
H        3.94812261      -2.43853254      -2.50630531
H        1.82474329       2.10799262      -1.26109438
H        3.20194348       3.20638417      -0.99228694
