17
Properties=species:S:1:pos:R:3 -1736.2943627268494=T 13.474529=T 13.44905=T -8.5517=T -6.5525=T -8.293=T 0.4443=T -1.0362=T 0.23=T 7.78007=T 0.37357=T 4.9198636688=T 0.803078386=T pbc="F F F"
C        0.92133805       0.11476319      -0.07252232
C        2.38302240      -0.23215942      -0.12843464
C        2.68920096      -1.66139028      -0.50258589
O        2.23493561      -2.59435554       0.50026205
C        3.33936340       0.68666827       0.16337061
C        4.77902765       0.50648815       0.16077331
C        5.65223654       1.49044130       0.45548359
H        0.75502545       1.12912362       0.31285844
H        0.37562934      -0.59966616       0.56246326
H        0.46866328       0.04817820      -1.07647491
H        3.75960792      -1.81036211      -0.71561756
H        2.13187174      -1.93710127      -1.41197320
H        2.68212465      -2.35341992       1.33179478
H        3.00106225       1.69389913       0.43680869
H        5.17706304      -0.48089624      -0.09117315
H        5.30866174       2.49564638       0.71173063
H        6.72860600       1.31962269       0.44696630
