18
Properties=species:S:1:pos:R:3 -1784.037189751707=T 12.541195=T 13.69923=T -8.9944=T -6.9505=T -9.485=T 1.737=T 0.1077=T 1.392=T 8.9573=T -0.82654=T 6.675096275=T 0.460942531=T pbc="F F F"
C        2.06792245      -1.03013916      -0.12751295
C        2.23133411       0.23728155      -0.52386485
C        3.06977717       1.26353905       0.17893440
C        4.20489233       1.80074082      -0.70343946
N        4.91587408       2.88999523      -0.03019134
C        6.04071943       2.47266462       0.81658733
C        6.28288120       3.13092787      -0.50114817
H        1.44119686      -1.72757703      -0.68521313
H        2.55289854      -1.41047710       0.77547641
H        1.72471877       0.57492698      -1.43638874
H        3.48963596       0.83800344       1.10474875
H        2.44362988       2.12327988       0.47391677
H        3.78847627       2.20508517      -1.64154509
H        4.88636208       0.96683569      -0.98038116
H        6.26043149       1.40076215       0.87957267
H        6.16814321       3.03133069       1.74632761
H        6.58823894       4.17863387      -0.54886744
H        6.66458723       2.49520629      -1.30774162
