19
Properties=species:S:1:pos:R:3 -1866.6915654646987=T 12.719112=T 14.14351=T -9.1164=T -6.9036=T -8.948=T 1.0354=T 0.0493=T 1.531=T 8.42192=T -0.91167=T 6.3072670088=T 0.416814728=T pbc="F F F"
C        1.45867842       3.11532596       0.96427192
O        2.83459458       2.77841760       0.88139471
C        3.07355554       1.76770752      -0.09616858
C        4.57289741       1.48161389      -0.16277710
C        5.38552361       2.64239127      -0.66111036
C        6.17803872       2.61122441      -1.74127334
C        6.99287488       3.76157208      -2.25053144
H        1.35794637       3.88256254       1.74259344
H        0.84135841       2.23842915       1.24009542
H        1.08041283       3.52034664       0.00600807
H        2.70307715       2.10324574      -1.08645513
H        2.52129504       0.84463254       0.17588381
H        4.72874364       0.60556449      -0.81267875
H        4.90241593       1.19611283       0.85185414
H        5.30035664       3.57063668      -0.08456050
H        6.25254781       1.67478917      -2.30993527
H        6.86445933       4.65501090      -1.62352635
H        6.71224950       4.02405756      -3.28360309
H        8.06590418       3.51061905      -2.27384161
