21
Properties=species:S:1:pos:R:3 -2009.4698736142645=T 12.286927=T 13.70322=T -9.4507=T -7.3214=T -11.465=T 0.9162=T 0.0112=T 2.969=T 10.72845=T -2.65512=T 9.1877097608=T 10.308382019=T 0.1164804=T pbc="F F F"
C        1.53583389      -0.43496178       0.69269586
O        2.83987379       0.08162592       0.90348822
C        3.04164043       1.39563626       0.35317540
C        2.34038983       2.47409799       1.18189623
C        4.56345563       1.61392430       0.21779661
C        5.30377980       1.52877702       1.55979018
C        5.16596425       0.64037782      -0.80285760
H        1.54341419      -1.47477695       1.04570529
H        1.26437057      -0.42457012      -0.38084534
H        0.76167140       0.11844534       1.25497814
H        2.61404257       1.40778300      -0.67255067
H        2.68795673       2.45870915       2.22382410
H        1.25083861       2.33361359       1.18447565
H        2.54166896       3.46972755       0.76042330
H        4.68124210       2.63962885      -0.17712574
H        5.17345598       0.53520294       2.01188242
H        4.94910050       2.27998815       2.27936672
H        6.38035640       1.69698243       1.41095883
H        5.05688972      -0.39784482      -0.45797492
H        6.23713294       0.84155427      -0.95022692
H        4.66880171       0.72728907      -1.78108577
