19
Properties=species:S:1:pos:R:3 -1806.265062283998=T 13.341481=T 14.20735=T -8.0421=T -6.117=T -8.866=T 1.2056=T -0.0725=T 0.882=T 8.3171=T -0.26378=T 4.8975957832=T 5.3764297152=T 0.243762082=T pbc="F F F"
C        3.50152364       5.14283781      -2.73414813
C        3.73575301       4.49135690      -1.37698131
N        5.02027289       3.78916519      -1.36149556
N        5.40545279       3.34586773      -0.12450245
C        6.17270152       2.31544656      -0.04669366
C        6.70156668       1.83528116       1.27032382
C        6.30311351       0.38469434       1.58020725
H        2.54077352       5.67541489      -2.74074269
H        3.46732694       4.39429218      -3.54066031
H        4.30051155       5.85967607      -2.96812704
H        2.89521105       3.81374358      -1.12736392
H        3.78345513       5.24988981      -0.58249750
H        5.09484905       3.07914766      -2.10500309
H        6.46712313       1.75199064      -0.95465056
H        6.33574673       2.51537816       2.05362537
H        7.80434835       1.91059570       1.26762841
H        5.21091731       0.28631545       1.66033308
H        6.74720540       0.04814285       2.52797965
H        6.64472780      -0.30183669       0.79064864
