12
Properties=species:S:1:pos:R:3 -1272.1550661496046=T 11.37162=T 10.77572=T -9.5622=T -7.6685=T -9.884=T -0.2021=T -1.9372=T -0.777=T 9.30899=T 1.31551=T 4.3622242352=T 5.3300837484=T 0.797153915=T pbc="F F F"
C        5.21812674      -1.57466846       0.83570444
C        4.33309538      -0.56430587       0.76343190
C        3.01345715      -0.72973410       0.18907923
N        2.21806921       0.28627883       0.14801488
O        0.98540559      -0.13091838      -0.45743806
C        0.06830965       0.89292853      -0.57044431
O        0.19460380       2.04018860      -0.23630527
H        6.20702157      -1.43370761       1.27055038
H        4.97387327      -2.57163588       0.46268293
H        4.57791016       0.43263129       1.13721043
H        2.71422482      -1.71322923      -0.19978038
H       -0.82539734       0.43705227      -1.04280618
