17
Properties=species:S:1:pos:R:3 -1747.8567161551764=T 11.408255=T 12.20777=T -8.9666=T -6.7936=T -8.988=T 0.9231=T 0.0388=T 1.31=T 8.52758=T -0.68558=T 6.0543107716=T 0.300874494=T pbc="F F F"
C        0.85073486       0.10529402      -0.06859236
C        2.38021615       0.05828216       0.05449001
C        3.04434408       0.06235669      -1.32976485
O        2.75198736      -1.17605644       0.74302252
C        3.45734339      -0.87848010       1.95693010
C        3.52600139       0.61711183       2.02264332
C        2.92084486       1.14378380       0.95580330
H        0.38597413       0.07864053       0.92599584
H        0.49558003      -0.76077932      -0.64499146
H        0.52601189       1.02101728      -0.58439056
H        4.13707608       0.01644444      -1.23029839
H        2.77992721       0.97136008      -1.88995431
H        2.70773339      -0.81016003      -1.90748234
H        4.46145500      -1.34534207       1.93121309
H        2.91632790      -1.31270040       2.82044702
H        4.00732197       1.16028434       2.83576477
H        2.81090032       2.20383318       0.72750432
