13
Properties=species:S:1:pos:R:3 -1395.7643518003479=T 14.314353=T 13.2992=T -7.9974=T -6.144=T -8.214=T 0.564=T -0.9748=T 0.095=T 7.69071=T 0.36689=T 4.051800487=T 4.2438919968=T 0.367033851=T pbc="F F F"
N        0.90409784       0.29088222      -1.16313111
C        2.18608494       0.24286429      -1.17827988
N        2.93274108       1.25621485      -0.60984314
C        4.30967355       1.30694353      -0.57690310
C        5.03477187       2.31267071      -0.02257382
C        6.44527027       2.32923908      -0.00973752
C        7.66302308       2.38466280       0.02251057
H        0.51253265      -0.53550015      -1.62490868
H        2.81138374      -0.55351465      -1.61455396
H        2.38959842       2.01524079      -0.19553640
H        4.80860567       0.45515276      -1.04276384
H        4.51944573       3.16034879       0.44091806
H        8.73218115       2.42774498       0.04752284
