16
Properties=species:S:1:pos:R:3 -1586.0857235463143=T 10.302569=T 11.32488=T -8.962=T -6.999=T -10.161=T 0.8701=T -0.0536=T 0.511=T 9.3592=T 0.10712=T 4.873331723=T 5.9138594308=T 0.150556417=T pbc="F F F"
C        1.59732939       2.43935388      -1.24408011
O        2.98942167       2.40715498      -0.87347828
C        3.43364166       1.15726894      -0.50638027
O        2.71911592       0.16071599      -0.50971269
N        4.75394699       1.18378835      -0.13537427
C        5.40723526      -0.06806459       0.21316675
C        5.59921074       2.36733858      -0.19493246
H        1.39426715       3.48346513      -1.50640523
H        0.96252484       2.12262710      -0.40590115
H        1.40749064       1.78263894      -2.10331635
H        4.66042620      -0.86780719       0.20313710
H        5.85628831       0.00173935       1.21704174
H        6.20579518      -0.30630177      -0.50972428
H        4.98727635       3.25971091      -0.34330159
H        6.32837332       2.29199588      -1.02073239
H        6.15839638       2.47050551       0.74855347
