12
Properties=species:S:1:pos:R:3 -1277.603690212924=T 9.290145=T 9.3956=T -9.6758=T -7.6513=T -11.017=T -0.5944=T -2.4885=T -1.648=T 10.08603=T 1.98113=T 3.1050185938=T 5.5173026084=T 0.235227185=T pbc="F F F"
O        0.92510036      -0.10869244      -0.43231162
C        2.11373010       0.01014355      -0.15907332
C        2.78303222       1.31259285       0.23091717
C        4.24784061       1.21092701      -0.14764686
O        4.89388005       0.05946219       0.46862563
N        4.26069599      -1.15270007       0.31310159
C        3.01877672      -1.15871964      -0.07740084
H        2.29102221       2.15759269      -0.26932819
H        2.66240288       1.44771925       1.31908246
H        4.84625478       2.06815924       0.18388807
H        4.35900739       1.09058304      -1.24064674
H        2.58786669      -2.15443767      -0.20781735
