16
Properties=species:S:1:pos:R:3 -1597.2958561544115=T 10.572989=T 11.78432=T -9.3653=T -7.1955=T -10.412=T 0.8999=T -0.0191=T 2.628=T 9.79203=T -2.24155=T 7.9751018836=T 10.7711721626=T 0.188803687=T pbc="F F F"
N        0.92034564       0.16460557      -0.68630276
C        2.26054020       0.10147908      -0.14813610
C        3.22066458      -0.81019954      -0.88872338
C        3.35544490       0.68848676      -1.01258654
C        2.45456575       0.19949434       1.34177537
C        1.52219600       0.90249882       2.23864992
O        1.52452069      -0.54008481       2.16984378
H        0.51650297       1.09318647      -0.53837863
H        0.32600045      -0.50660584      -0.19107861
H        2.80406045      -1.34868991      -1.73884170
H        3.96785360      -1.35004830      -0.30587620
H        4.19615679       1.17618816      -0.51693595
H        3.03317528       1.14816063      -1.94654353
H        3.49830266       0.11571879       1.67459713
H        0.62789873       1.38091281       1.82506106
H        1.89276131       1.32631697       3.17826613
