19
Properties=species:S:1:pos:R:3 -1808.3500411020216=T 12.193979=T 13.29476=T -8.4923=T -6.3925=T -9.746=T 0.8391=T -0.0928=T 3.225=T 9.37854=T -2.88497=T 7.8253515928=T 12.9341327298=T 0.234825736=T pbc="F F F"
C        2.59016125      -0.90269695      -0.44448731
N        2.22432928       0.33489976       0.24791134
C        3.29768990       1.29332281       0.29977469
C        3.47383753       2.21641649      -0.89887769
C        3.00971150       2.79062834       0.41357721
C        1.57949821       3.26356361       0.54771865
N        3.94512980       3.66127545       1.11109187
H        1.74292345      -1.60251063      -0.41943309
H        3.47917872      -1.41429455      -0.02054098
H        2.80848717      -0.67503697      -1.49846976
H        1.90738623       0.11703926       1.19547251
H        4.23970050       0.97384406       0.77935057
H        2.73007911       2.12589036      -1.69218837
H        4.48664155       2.44261268      -1.23802286
H        0.89228714       2.56520764       0.05534810
H        1.47050672       4.26389776       0.10486386
H        1.29031463       3.33265057       1.60961564
H        4.90822469       3.36373968       0.93876008
H        3.79503263       3.58935062       2.12273551
