18
Properties=species:S:1:pos:R:3 -1752.6747461828832=T 11.310595=T 12.48174=T -8.7597=T -6.623=T -10.1=T 0.8777=T -1.0332=T -0.043=T 9.46267=T 0.68306=T 3.620763158=T 11.2831723496=T 0.115990772=T pbc="F F F"
C        2.01313293      -1.17349964      -0.57459508
C        3.08278273      -0.86032137       0.47439080
C        3.80578975       0.50088924       0.30386988
N        4.65003454       0.77084696       1.46057424
C        5.11149546       2.16184562       1.53898158
C        4.54425558       0.51773661      -1.03403436
O        5.75370405       0.41497069      -1.14200620
H        1.48769640      -2.10374021      -0.31742325
H        2.43333601      -1.30626995      -1.58165708
H        1.25887950      -0.37344808      -0.62831274
H        3.84515627      -1.65752543       0.48840084
H        2.63736320      -0.83699179       1.47993577
H        3.02662972       1.28614424       0.25188624
H        5.47036067       0.15975590       1.40158728
H        4.24153306       2.82250011       1.67680517
H        5.67933401       2.51170588       0.65606870
H        5.75247756       2.27426616       2.42413692
H        3.90095855       0.60910505      -1.94771871
