16
Properties=species:S:1:pos:R:3 -1618.8168589067502=T 10.195952=T 11.08379=T -9.4193=T -7.265=T -10.995=T 0.7915=T -0.1723=T 2.837=T 10.33669=T -2.68116=T 8.5584064192=T 10.6595475668=T 0.13396163=T pbc="F F F"
O        1.27030678       0.38700764       0.42911541
C        2.59419627       0.00229839       0.05991871
C        2.70426350      -1.47654065      -0.39727337
C        2.61068986      -1.48591366      -1.94498530
C        3.03369151      -0.08083250      -2.36328457
N        1.96981549       0.93477862      -2.13959601
C        3.08270913       0.79985281      -1.16267481
H        0.84859886       0.62589707      -0.42652023
H        3.22919583       0.19269739       0.93844471
H        1.94237555      -2.09186147       0.09965878
H        3.69262573      -1.86051816      -0.09666898
H        3.26931043      -2.24622125      -2.38842860
H        1.58806686      -1.68826683      -2.29664174
H        3.71291343       0.06613863      -3.20594516
H        2.13135502       1.75304573      -2.73443776
H        3.79575576       1.61887824      -1.05421108
