19
Properties=species:S:1:pos:R:3 -1829.1826031775915=T 11.027004=T 12.23214=T -9.8194=T -7.5129=T -11.801=T 0.7631=T -0.251=T 2.527=T 11.39843=T -2.21339=T 9.3443660718=T 0.07454372=T pbc="F F F"
C        0.98043836       0.01471382      -0.01623176
C        2.50851442      -0.04883651       0.06261562
C        2.95015711      -0.85293086       1.28579522
O        3.01305967      -0.81014703      -1.08339902
C        3.10414606       1.37787512       0.04263586
C        4.63263720       1.46049044       0.05816301
O        5.24491634       0.89641438      -1.10163672
H        0.65576375       0.57452228      -0.90780690
H        0.56067337       0.52251692       0.86415071
H        0.55981403      -0.99931000      -0.06756437
H        2.65352663      -0.34118109       2.21167674
H        4.03911200      -0.99207770       1.29990601
H        2.48224449      -1.84650251       1.26841633
H        2.60115550      -0.43334051      -1.88259390
H        2.71192906       1.93224687       0.91263318
H        2.73233727       1.89888192      -0.85752237
H        5.02823737       0.99126752       0.98083240
H        4.93605092       2.51864178       0.08658945
H        4.77650645       0.04868517      -1.25532947
