18
Properties=species:S:1:pos:R:3 -1795.672372014463=T 12.897155=T 13.93073=T -8.5205=T -6.4661=T -8.607=T 0.8674=T -0.0378=T 1.38=T 8.07782=T -0.68813=T 5.914256186=T 0.444744761=T pbc="F F F"
C        0.93228328      -0.01147609      -0.35139038
C        2.35741332      -0.31617594       0.03019130
C        2.52611276      -1.52494453       0.91296508
C        3.36879327       0.45715709      -0.41224212
C        4.81197385       0.29415469      -0.14393323
C        5.83269497       0.51618828      -1.21883991
N        5.62540686       1.54568470      -0.18636630
H        0.86109044       0.87946506      -0.98887559
H        0.31107079       0.15477385       0.54481193
H        0.47772567      -0.85907209      -0.89162892
H        1.92247599      -1.42032675       1.82973621
H        3.56491676      -1.70979086       1.21039744
H        2.15800250      -2.43027747       0.40160703
H        3.12935581       1.31706213      -1.04793981
H        5.09205339      -0.44488461       0.61206117
H        5.49478717       0.80145260      -2.21819914
H        6.73618453      -0.09946439      -1.19525600
H        6.37021864       1.48600433       0.51531124
