11
Properties=species:S:1:pos:R:3 -1215.1246702761566=T 9.253579=T 9.56144=T -10.0274=T -7.9751=T -10.799=T -1.8376=T -3.8056=T -2.312=T 10.53012=T 2.54467=T 2.7204512176=T 7.1440485228=T 0.488538903=T pbc="F F F"
C        0.95507728       0.06687240      -0.00653220
C        2.43835193       0.01971786      -0.00086955
N        3.20972931       1.04463006       0.00557706
N        4.66296749       0.55722377       0.00920120
C        4.65980204      -0.72162746       0.00518171
C        3.25445962      -1.27107887      -0.00168440
O        2.86458859      -2.41977713      -0.00608109
H        0.60355509       1.10408538       0.00091172
H        0.55424760      -0.46593825       0.86853894
H        0.56169288      -0.45014240      -0.89443644
H        5.57555816      -1.31295536       0.00670306
