15
Properties=species:S:1:pos:R:3 -1497.6068693399886=T 11.177419=T 11.47734=T -8.9115=T -7.0013=T -9.412=T 0.8452=T -0.8282=T -0.012=T 8.79061=T 0.3929=T 4.5408136696=T 5.539384515=T 0.470352518=T pbc="F F F"
C        1.95208163      -0.29652499      -1.11505011
O        3.19815674       0.18887690      -0.61375277
C        3.23552970       1.50025141      -0.22966528
C        2.18927641       2.35080236      -0.22681276
C        4.63245304       1.88928083       0.16010666
N        4.73116286       3.05106298       0.91715274
N        5.69706349       1.26556399      -0.20891636
H        2.12895361      -1.33950152      -1.39964259
H        1.62869765       0.28317217      -1.99477373
H        1.16973049      -0.25259379      -0.33984005
H        1.18616523       2.05644470      -0.52685503
H        2.35037168       3.39219738       0.03892383
H        4.01136844       3.18099582       1.62337794
H        5.67754504       3.20158862       1.26232768
H        5.43906400       0.48576313      -0.82461017
