17
Properties=species:S:1:pos:R:3 -1603.7154154776797=T 11.49552=T 12.00465=T -8.626=T -6.6351=T -9.839=T 1.1226=T -0.0837=T 0.55=T 9.28713=T 0.04354=T 4.6878734642=T 5.8965757824=T 0.197380488=T pbc="F F F"
C        2.19112035      -0.93470142      -1.58835973
C        2.33213986      -0.62870469      -0.09753951
C        3.25517250       0.56177238       0.19840177
N        4.63387257       0.28522721      -0.17290389
C        5.20518614       1.01995492      -1.05553440
N        6.47444839       0.69012362      -1.48951814
O        7.08984479      -0.31021978      -0.69642845
H        1.51910448      -1.78794795      -1.75691756
H        3.16415809      -1.18103942      -2.03628548
H        1.77713567      -0.07212668      -2.13444104
H        2.72332260      -1.51195180       0.43276367
H        1.34369116      -0.40840375       0.33807338
H        3.23090362       0.76784655       1.28185937
H        2.86745111       1.46610093      -0.31613314
H        4.76469623       1.89197087      -1.56590180
H        7.12067408       1.47648994      -1.59041778
H        6.33830836      -0.52260094      -0.07174729
