12
Properties=species:S:1:pos:R:3 -1270.466127852311=T 8.162938=T 8.95171=T -10.0446=T -7.9506=T -11.312=T 0.7339=T -0.3892=T 0.056=T 10.21629=T 0.53199=T 4.3090342412=T 11.4833601452=T 0.279777677=T pbc="F F F"
O        1.07501828       0.36875446      -0.67818007
C        2.24892375       0.08940585      -0.01576873
O        2.38372641      -0.98799075       0.52268976
C        3.30367838       1.14783414       0.00124706
C        3.54205468       2.07107855      -1.18495130
C        2.96204893       2.62898422       0.07788685
H        1.10708216       1.26627088      -1.06030433
H        4.18389492       0.81798553       0.55132861
H        2.89897239       1.95726260      -2.05919727
H        4.58046339       2.29548245      -1.42658806
H        3.59575479       3.24265624       0.71730281
H        1.90793191       2.91048583       0.09849467
