13
Properties=species:S:1:pos:R:3 -1342.1961490063945=T 12.606068=T 12.63326=T -7.4966=T -5.7062=T -8.461=T 0.6919=T -0.2294=T 0.581=T 7.8679=T -0.00282000000001=T 4.7568716732=T 10.8376038614=T 0.257377706=T pbc="F F F"
C        0.99844320       0.01852115      -0.00905003
N        2.44973195      -0.02706268      -0.00142072
C        3.27094568       1.09670126       0.00479053
C        4.59249889       0.82175039       0.01111678
S        4.88549450      -0.91203174       0.00929498
C        3.12150314      -1.25677536      -0.00121921
N        2.66564242      -2.45738129      -0.00699924
H        0.67436841       1.06461412      -0.00032238
H        0.58623943      -0.48414511       0.87983471
H        0.59518965      -0.46690835      -0.91159011
H        2.81195981       2.08216372       0.00420008
H        5.41243112       1.53045797       0.01679025
H        1.64109179      -2.48461408      -0.01321564
