20
Properties=species:S:1:pos:R:3 -1936.6207459281081=T 13.207227=T 14.44112=T -8.7264=T -6.5517=T -9.152=T 0.9188=T -0.0049=T 1.441=T 8.53217=T -0.80766=T 6.3965741246=T 0.422207829=T pbc="F F F"
C        1.43438105      -0.28410025      -0.31823899
N        2.80604931       0.16175401      -0.08772703
C        2.95184268       1.61298029      -0.19070333
C        4.41363512       2.03123317       0.02237130
C        4.64570502       3.52297708      -0.04976127
C        3.97999592       4.36519192       1.00791143
C        5.41946652       4.06726811      -1.00190621
H        1.39736202      -1.38230608      -0.31247326
H        0.99085120       0.07539360      -1.27128271
H        0.79195589       0.07310375       0.50173572
H        3.42266970      -0.28149400      -0.77378466
H        2.31368424       2.06270693       0.58878067
H        2.59366109       2.01717616      -1.16431087
H        5.04272000       1.53121583      -0.73283752
H        4.73220400       1.65055771       1.00874389
H        2.88218226       4.31081920       0.93572855
H        4.27133683       5.42024452       0.92376788
H        4.24629294       4.01019433       2.01687635
H        5.90367134       3.45111694      -1.76244794
H        5.59686286       5.14381678      -1.04700201
