19
Properties=species:S:1:pos:R:3 -1823.501934722118=T 12.33322=T 13.09397=T -8.2053=T -6.3388=T -9.103=T 0.7181=T -0.221=T 1.107=T 8.18956=T -0.53063=T 5.037427194=T 11.3909409808=T 0.211437956=T pbc="F F F"
C        0.94221977      -0.19972195       0.05839633
C        2.44176305       0.06155148      -0.13979940
C        3.05755264      -0.87691709      -1.18636085
N        2.72411545       1.47635951      -0.43136860
C        2.19220240       2.09807121      -1.63164295
C        3.42715098       2.25237752       0.46293566
N        3.72929789       3.50517238       0.40895103
H        0.53124925       0.45783900       0.83664759
H        0.77142630      -1.24312092       0.36009410
H        0.37625712      -0.02909195      -0.86980626
H        2.94667805      -0.13156255       0.82063711
H        2.59274235      -0.74453572      -2.17499236
H        2.90848358      -1.92592054      -0.89270709
H        4.13609259      -0.69426116      -1.28677560
H        1.68503317       1.34622955      -2.24614472
H        2.99799053       2.54392067      -2.23853388
H        1.46327156       2.89119974      -1.39032409
H        3.76887122       1.67836518       1.33732539
H        3.36200212       3.95012563      -0.44318140
