15
Properties=species:S:1:pos:R:3 -1559.9425117241979=T 10.046496=T 11.03318=T -9.696=T -7.4744=T -11.003=T 0.6228=T -1.3219=T -0.455=T 10.48491=T 1.1083=T 3.6825825776=T 8.3916576478=T 0.164206692=T pbc="F F F"
C        0.92807727      -0.00622577       0.41751930
C        2.25299834       0.48622627      -0.18892646
C        2.49860083       0.00350798      -1.62964610
C        1.37822675       0.35174567      -2.58531167
O        0.83931967      -0.44955994      -3.32704692
C        2.40211504       1.98874401      -0.02481383
O        2.82203584       2.75472651      -0.87159183
H        0.81452310       0.33832361       1.45530357
H        0.89094781      -1.10358393       0.41995254
H        0.06260242       0.35588182      -0.15600876
H        3.07053725       0.08181372       0.44196101
H        2.65510403      -1.08341899      -1.65983726
H        3.40554711       0.50268963      -2.01369110
H        1.06975912       1.42743832      -2.58731905
H        2.11092542       2.36539108       0.99123657
