16
Properties=species:S:1:pos:R:3 -1643.6040525857943=T 13.114588=T 13.68396=T -8.6695=T -6.5997=T -8.398=T 0.7901=T -0.6986=T 0.666=T 7.92666=T -0.06669=T 4.0742667502=T 5.7991103878=T 0.392744156=T pbc="F F F"
C        0.99344970      -0.35962528      -0.19057814
C        2.46419789      -0.09507410      -0.13214648
C        3.09144729       1.10160405      -0.01254177
C        2.37342981       2.43821938       0.08088554
N        2.46161446       2.97438607       1.44817916
C        4.51586551       1.15348713       0.04079926
C        5.73041843       1.23394318       0.06412433
H        0.70365708      -1.07835400       0.59306114
H        0.72106401      -0.82897389      -1.15043917
H        0.38024060       0.54160932      -0.06932588
H        3.10418460      -0.98086895      -0.19159977
H        1.34300619       2.32594334      -0.30476013
H        2.88709694       3.14833798      -0.58628332
H        1.92072328       2.38655142       2.08731786
H        2.05168772       3.91016489       1.48373945
H        6.79831649       1.30081948       0.09472791
