15
Properties=species:S:1:pos:R:3 -1566.4206936360545=T 10.113384=T 11.38714=T -10.0316=T -8.0272=T -11.318=T 1.7848=T 0.0898=T 0.199=T 10.15922=T 0.44579=T 4.4820567042=T 12.0752941064=T 0.255766801=T pbc="F F F"
C        1.45453793       0.65130351      -0.45729694
O        2.75523504       0.86736124       0.13506821
C        3.78775545       0.89320977      -0.75874389
O        3.64253561       0.74524133      -1.96139551
C        5.08045940       1.12274834      -0.06417906
C        6.31411834       0.44818714      -0.64805618
C        6.13877896       1.92247918      -0.81144407
H        0.75351404       0.62079856       0.38310772
H        1.43678959      -0.29473292      -1.01378480
H        1.20327876       1.47243335      -1.14172425
H        5.02227316       1.23538618       1.01752118
H        6.14249523      -0.17684716      -1.52439016
H        7.05022310       0.07924289       0.06567544
H        6.75100820       2.59718306      -0.21373428
H        5.84909719       2.28582551      -1.79739343
