12
Properties=species:S:1:pos:R:3 -1333.9737216084113=T 11.413505=T 11.36782=T -9.0936=T -7.0663=T -9.462=T 0.0155=T -1.721=T -0.34=T 9.05522=T 0.80218=T 5.0221273216=T 6.3468929344=T 0.358581388=T pbc="F F F"
C        1.02908656       0.11240824      -0.60190279
C        2.29104734      -0.12061401      -0.24092380
O        3.21566584       0.91070675      -0.23773526
C        4.51984096       0.68151478       0.12900556
C        5.40733058       1.69290214       0.14160652
C        4.91309030      -0.65016379       0.49339122
N        5.23141474      -1.73538097       0.78985511
H        0.31782575      -0.70975608      -0.59719214
H        0.69021513       1.10328443      -0.90138041
H        2.66937014      -1.09805221       0.06530868
H        5.10015393       2.69928150      -0.13626812
H        6.43720873       1.50453921       0.43024544
