15
Properties=species:S:1:pos:R:3 -1546.752376859372=T 12.580027=T 12.00771=T -7.7915=T -5.9343=T -8.403=T 0.5619=T -1.0144=T -0.211=T 7.90705=T 0.71804=T 4.461388238=T 0.408190945=T pbc="F F F"
C        0.92030830       0.01233169      -0.16208955
C        2.26376907       0.13581729      -0.18197329
C        2.98226829       1.38164758      -0.07306545
N        4.28873157       1.40858119      -0.04909365
N        4.70681432       2.70399893       0.17562104
C        3.60734616       3.64611388      -0.14260693
C        2.37527881       2.76369353       0.10904491
H        0.44405474      -0.96350374      -0.25103777
H        0.26186326       0.87631682      -0.05317660
H        2.89558026      -0.75091586      -0.28399668
H        5.60817507       2.87818231      -0.26756563
H        3.65249338       3.96532961      -1.20017541
H        3.65649722       4.53434856       0.50027396
H        1.54679483       2.96971442      -0.58092011
H        1.99404472       2.87363380       1.13898118
