13
Properties=species:S:1:pos:R:3 -1425.0243825028194=T 12.902281=T 13.9101=T -9.3268=T -7.1618=T -8.774=T 0.8961=T -0.7525=T 0.947=T 8.40151=T -0.54037=T 3.215824882=T 7.9031652064=T 2.004858689=T pbc="F F F"
O        0.96073570       0.11353420       0.01437641
C        2.38531491      -0.01227784       0.01574800
C        2.95185431       1.41407470       0.00019617
C        4.40208022       1.43788345      -0.00004581
C        5.62539704       1.43451369      -0.00000105
C        6.98506782       1.43498166      -0.00001463
C        8.20610042       1.43313637      -0.00000782
H        0.57826676      -0.77955616       0.02416501
H        2.74523386      -0.56000799      -0.87314606
H        2.74523621      -0.54049498       0.91637234
H        2.56436791       1.95716060       0.87859674
H        2.56438056       1.93789062      -0.88983304
H        9.27627428       1.43270168      -0.00001627
