17
Properties=species:S:1:pos:R:3 -1596.2057552532015=T 11.596641=T 12.18578=T -9.1326=T -6.9401=T -10.427=T 1.4182=T -0.4681=T 0.332=T 10.23651=T 0.18693=T 5.2990748498=T 6.516580174=T 0.430712201=T pbc="F F F"
C        0.80065274      -0.10015751      -0.12251107
C        2.31774688      -0.14370605      -0.11922724
C        2.90954495      -0.85894059      -1.34093196
N        2.60591543      -2.29701873      -1.28178028
O        2.76752494       1.23878996      -0.09127556
N        4.10145872       1.29332022       0.33639008
C        4.54795610       2.49521619       0.33218639
H        0.41331237       0.32874606       0.81087575
H        0.41723169      -1.12170537      -0.23982029
H        0.43755615       0.50685144      -0.96499696
H        2.68954828      -0.63070108       0.79964800
H        3.98850744      -0.62051167      -1.38090407
H        2.44432843      -0.44209418      -2.24891738
H        3.21312674      -2.75084116      -0.59412621
H        2.81752488      -2.73506480      -2.17981451
H        5.57611458       2.62517202       0.67043090
H        3.95004968       3.35789524       0.01572441
