15
Properties=species:S:1:pos:R:3 -1517.4653068126208=T 10.359613=T 11.12956=T -8.9827=T -6.9835=T -9.98=T 0.6671=T -0.3014=T 0.98=T 9.28097=T -0.4334=T 5.2127186008=T 9.017067829=T 0.233414983=T pbc="F F F"
C        0.95386944       0.00034106       0.02048721
C        2.47337416      -0.05025293       0.09325838
C        3.10571947       1.09362593       0.89632168
O        4.33024208       0.54706757       1.42402345
C        4.22095292      -0.82484526       1.45151979
N        5.15280620      -1.52369084       1.96997331
N        2.98716316      -1.17976367       0.87993916
H        0.55403939      -0.85871490      -0.53634615
H        0.62412119       0.91170656      -0.49938648
H        0.51977991      -0.00947646       1.03007307
H        2.89629588      -0.05755767      -0.93098458
H        2.45277758       1.39191442       1.73528262
H        3.35378638       1.97321313       0.28943130
H        4.93669832      -2.52316842       1.90761268
H        2.96285392      -2.10022851       0.44781455
