11
Properties=species:S:1:pos:R:3 -1316.1264636009796=T 10.623797=T 10.80313=T -8.8466=T -6.9966=T -8.636=T 1.0897=T -0.5567=T 0.078=T 8.10882=T 0.47289=T 4.6309142958=T 6.3174958538=T 0.354086867=T pbc="F F F"
N        0.90903760       0.07260061      -0.00924053
C        2.07914566       0.04479621      -0.00478748
C        3.49506325       0.00290917       0.00060131
C        4.33983377       1.11167287       0.00410087
N        5.62356617       0.64116977       0.00893015
C        5.63105565      -0.74037120       0.00864176
C        4.32184452      -1.16875374       0.00350644
H        4.10975206       2.17065865       0.00346575
H        6.45131996       1.22689437       0.01225121
H        6.56140686      -1.29698361       0.01209138
H        3.97539449      -2.19638310       0.00193912
