16
Properties=species:S:1:pos:R:3 -1634.2955848322247=T 11.776447=T 12.9446=T -8.9154=T -6.7046=T -9.808=T 0.8897=T -0.0427=T 2.329=T 9.39346=T -1.92788=T 4.3646543608=T 10.6010261748=T 0.352544766=T pbc="F F F"
C        3.11901125      -0.95025568      -2.41852105
C        3.31544362      -0.48786081      -1.31287589
C        3.57508276       0.08827051       0.00097460
C        4.54486903       1.27998316      -0.04665236
C        3.92532414       2.57871833      -0.62676472
N        3.62353547       3.01921475       0.76466911
C        4.62966073       2.05909184       1.29308870
H        2.93725114      -1.36411047      -3.38908932
H        3.98650603      -0.69153822       0.66467841
H        2.62468382       0.41889001       0.45351694
H        5.50138305       0.96975889      -0.48673933
H        3.04285916       2.46746518      -1.27663997
H        4.68243368       3.19259103      -1.14772153
H        3.81654131       4.00342577       0.96117909
H        5.63704355       2.48618859       1.45196666
H        4.31872127       1.52849713       2.20868066
