15
Properties=species:S:1:pos:R:3 -1508.7440871181032=T 10.205319=T 11.04765=T -8.513=T -6.4548=T -9.288=T 0.8637=T -0.2394=T 0.924=T 8.65163=T -0.26621=T 5.2369454652=T 5.7230573754=T 0.119331049=T pbc="F F F"
O        1.74349261      -0.35715008       1.05010040
C        2.45907701      -0.01479624      -0.14006432
C        3.02452298       1.38497411      -0.12398546
N        4.01685540       1.76255567      -0.85561954
C        4.22286054       3.19321907      -0.54079930
C        2.96665770       3.63975856       0.25312730
N        2.47464560       2.33622912       0.73409240
H        2.37779532      -0.34715795       1.78893385
H        1.72430159      -0.09230482      -0.95657448
H        3.27559146      -0.72012136      -0.36453562
H        5.13725864       3.29025994       0.07047290
H        4.37745112       3.77763220      -1.45846557
H        2.22393059       4.12655484      -0.40419606
H        3.19691184       4.31650340       1.08708139
H        1.49429761       2.22852355       0.98832211
