13
Properties=species:S:1:pos:R:3 -1379.7070389528265=T 9.298669=T 9.96208=T -9.6457=T -7.5732=T -10.633=T 0.7217=T -0.1901=T 0.697=T 9.78221=T -0.07865=T 4.6689779978=T 12.3649130038=T 0.127470045=T pbc="F F F"
O        1.65715867       0.34751941       0.87323564
C        2.61581709       0.00568553       0.20783877
N        2.76680339      -1.18179634      -0.47887687
C        4.05465105      -1.35057746      -1.12588416
C        4.66245675       0.03693100      -0.93863540
C        3.91353504       1.21900226      -1.42872685
N        3.81367355       0.81166413       0.00285804
H        2.06051299      -1.90697628      -0.41099185
H        4.67454428      -2.10911478      -0.61856019
H        3.95472964      -1.63710978      -2.18588944
H        5.73895333       0.10538621      -0.77426224
H        4.43765244       2.16249197      -1.58971948
H        3.03564177       1.05128412      -2.05874598
