10
Properties=species:S:1:pos:R:3 -1175.7082668896371=T 10.942485=T 11.7116=T -10.5035=T -8.3606=T -10.101=T -0.155=T -1.9693=T -0.144=T 9.66716=T 0.45496=T 3.5779135964=T 7.841556563=T 1.242805408=T pbc="F F F"
N        0.93886228       0.05671995      -0.06174505
C        2.11297189       0.02285175      -0.05045365
C        3.47502330      -0.02049435      -0.03434587
C        4.69520996      -0.06264594      -0.02596792
C        6.12610850      -0.11160754       0.02162744
C        6.90392473      -0.80705991      -1.03520826
O        6.84582519       0.62270639      -0.99858052
H        6.56282694      -0.04434655       1.02438675
H        6.36365672      -1.27965686      -1.86051246
H        7.86552048      -1.25012694      -0.75718046
