16
Properties=species:S:1:pos:R:3 -1634.3547168674538=T 12.44966=T 12.54409=T -8.4018=T -6.3652=T -8.251=T 0.7922=T -0.6968=T 0.41=T 7.73782=T 0.14638=T 5.0652248552=T 0.747394977=T pbc="F F F"
C        0.85784097       0.06017365      -0.02463905
C        2.32497731       0.05928884      -0.31693582
C        3.23012341       0.84412420       0.30196183
C        4.66948961       0.87127137       0.04365703
C        5.24160865      -0.04813161      -1.00546504
C        5.46242177       1.71320791       0.74255556
H        0.51526182      -0.93595801       0.30036086
H        0.27186350       0.30953074      -0.92446575
H        0.60139386       0.78348169       0.76192294
H        2.66371336      -0.63653876      -1.09201576
H        2.87646601       1.53606390       1.07608456
H        4.79372969       0.14787386      -1.99213947
H        5.03844534      -1.10280091      -0.76271057
H        6.32793280       0.08072316      -1.09062055
H        5.04809515       2.37905364       1.50211471
H        6.53916674       1.75706634       0.57296454
