13
Properties=species:S:1:pos:R:3 -1473.2252218384415=T 12.085023=T 11.49736=T -7.7741=T -5.9027=T -8.125=T -0.0613=T -1.6083=T -0.198=T 7.61769=T 0.78153=T 4.3502595862=T 0.427635051=T pbc="F F F"
C        0.89535160       0.17182086       0.00223860
C        2.22611369       0.00285074      -0.00198438
O        3.07136004       1.12522447      -0.00784090
C        4.36263691       0.64487838      -0.01120739
C        4.43969258      -0.70134450      -0.00805242
C        3.07530676      -1.21330659      -0.00183965
C        2.66090799      -2.50204074       0.00304957
H        0.45864386       1.16806699       0.00119653
H        0.23465878      -0.69181517       0.00674962
H        5.13064759       1.41346581      -0.01591269
H        5.34918136      -1.29366816      -0.00977939
H        1.60344155      -2.76451855       0.00753685
H        3.38067728      -3.31958354       0.00259566
