15
Properties=species:S:1:pos:R:3 -1485.1889347673641=T 10.418903=T 10.86181=T -7.9788=T -6.0158=T -9.071=T 0.9195=T -0.0911=T 0.677=T 8.52165=T -0.12227=T 5.065262051=T 10.045655685=T 0.110235955=T pbc="F F F"
C        1.00064332      -0.03986181      -0.17599447
N        2.43044914       0.09163273      -0.43345950
C        3.05702030       1.21604112       0.25465589
C        4.52555773       1.25391530      -0.13772863
O        5.16538711      -0.00550529       0.16667853
C        4.33600519      -1.09258454       0.06417996
N        3.08026077      -1.12661240      -0.20167757
H        0.49052251       0.86587316      -0.53259074
H        0.77098972      -0.18361164       0.89868750
H        0.62536057      -0.90614221      -0.73336918
H        2.56250106       2.15095964      -0.04848247
H        2.96768957       1.11616328       1.35760684
H        5.07488140       2.01963939       0.42660954
H        4.63205781       1.44961179      -1.21570008
H        4.87374380      -2.02686852       0.22555436
