18
Properties=species:S:1:pos:R:3 -1816.4460736844824=T 12.333894=T 12.89728=T -8.3576=T -6.31=T -9.059=T 0.9052=T -0.2385=T 1.441=T 8.46281=T -0.79819=T 6.3462482072=T 0.423244743=T pbc="F F F"
C        0.98694619       0.02597336       0.06183730
C        2.32860064       0.00784434       0.05029086
C        3.13609090      -1.26524006       0.02009008
C        4.12720385      -1.24673502      -1.16829196
N        4.96176534      -0.04480877      -1.23592988
C        4.15955344       1.18030624      -1.20138278
C        3.16986004       1.25757495      -0.01418295
H        0.43059100       0.96598095       0.05897420
H        0.40562803      -0.89854470       0.08423906
H        2.47732073      -2.14602636      -0.04037988
H        3.71949273      -1.35285295       0.95588706
H        4.78486236      -2.12864843      -1.13148750
H        3.55447062      -1.30985413      -2.11002828
H        5.61665029      -0.04278781      -0.44823230
H        4.84044443       2.04510044      -1.18847851
H        3.58822518       1.23294043      -2.14461631
H        3.75583340       1.35487974       0.91904434
H        2.53485083       2.15369778      -0.09865256
