13
Properties=species:S:1:pos:R:3 -1367.4557703177354=T 11.129349=T 11.5216=T -9.6874=T -7.6972=T -9.956=T 0.356=T -1.3939=T 0.11=T 9.37589=T 0.39763=T 4.0119141908=T 6.6002459268=T 0.35561962=T pbc="F F F"
N        1.74884570      -0.76775999       0.26585881
C        2.28553706       0.27875122      -0.24346072
C        2.14580631       0.53710726      -1.65315029
C        2.08405688       0.84231214      -2.82830653
N        3.03155432       1.21260104       0.56201168
C        4.19550768       1.88771073      -0.07056250
C        2.95472921       2.65099209       0.19337252
H        1.96250478      -0.76873430       1.27641643
H        2.00162085       1.06867245      -3.87218853
H        4.41455367       1.64204330      -1.11252118
H        5.05700422       1.98141068       0.59250244
H        2.88516923       3.31753313       1.05446359
H        2.34248009       2.91673025      -0.67180572
