21
Properties=species:S:1:pos:R:3 -2008.1093876590166=T 12.388021=T 13.87571=T -9.6181=T -7.3947=T -11.592=T 0.9335=T 0.0107=T 3.065=T 10.8838=T -2.76214=T 9.3656048736=T 10.476693014=T 0.113519776=T pbc="F F F"
C        2.85871786      -0.81175929      -1.17576565
C        2.44632814      -0.04262693       0.08107267
C        2.96561058       1.40594676       0.15735793
C        2.39529574       2.13138631       1.38322516
C        4.49334065       1.49422725       0.12272560
O        5.04734281       0.78472030       1.22991033
C        6.46342145       0.84948419       1.23975040
H        2.38305809      -1.80272238      -1.20148518
H        3.94577330      -0.97231389      -1.22002208
H        2.56010192      -0.27698427      -2.09142996
H        2.78756680      -0.58570407       0.97726063
H        1.34541576      -0.00819292       0.13947554
H        2.62212499       1.93675460      -0.75127517
H        2.73735610       1.65288750       2.31208373
H        1.29565051       2.11135373       1.37347417
H        2.71396522       3.18435001       1.40896385
H        4.80592807       2.55858967       0.16430494
H        4.88916974       1.07474387      -0.82432078
H        6.81121936       0.27135166       2.10572352
H        6.82325383       1.89239254       1.33421100
H        6.89729908       0.41451535       0.31839936
