13
Properties=species:S:1:pos:R:3 -1441.4940732834093=T 9.693934=T 10.2105=T -10.0212=T -7.7438=T -9.764=T 1.4419=T -0.3233=T 0.206=T 10.15867=T 0.42408=T 4.3235282046=T 6.3483063748=T 0.282294807=T pbc="F F F"
O        0.90846284       0.13354451       0.01980651
C        2.11836232       0.05205928       0.01204630
C        2.83551646      -1.28693300       0.04969053
C        4.33038579      -1.23536593       0.02364648
C        4.98669512      -0.07449482      -0.01981003
C        4.29484606       1.24357794      -0.04629706
O        2.84622698       1.20753606      -0.02983478
H        2.43919521      -1.87421118      -0.79542154
H        2.46845733      -1.80966407       0.94895612
H        4.87430215      -2.18249705       0.04182698
H        6.07821287      -0.03702872      -0.03804886
H        4.59328451       1.85778738       0.82072858
H        4.57331236       1.81151959      -0.95060923
