18
Properties=species:S:1:pos:R:3 -1748.2968263643245=T 12.101749=T 12.99318=T -9.2217=T -7.0217=T -9.015=T 0.8505=T -0.3528=T 1.261=T 8.44635=T -0.59209=T 6.114865534=T 0.385686782=T pbc="F F F"
C        1.06526402       0.10959491      -0.29346898
C        2.53118519      -0.17462163      -0.09203544
C        2.90043421      -1.63888311      -0.10288767
O        2.40421622      -2.33801752       1.05851740
C        3.41925608       0.82023010       0.11122640
C        4.90096851       0.71989836       0.33603566
N        5.61425836       1.51374587      -0.68273128
H        0.83618740       1.17686809      -0.17724485
H        0.45713334      -0.46215074       0.42396259
H        0.74358820      -0.20634027      -1.29985771
H        3.98841773      -1.78392716      -0.20696245
H        2.41549835      -2.14005493      -0.95560291
H        2.75169650      -1.86742317       1.83759749
H        3.04779914       1.85175861       0.09488441
H        5.22524734      -0.33604840       0.39915757
H        5.13347348       1.17655298       1.31463927
H        5.49086108       1.07923408      -1.60099920
H        6.61827484       1.51000393      -0.48856031
