15
Properties=species:S:1:pos:R:3 -1485.2479239165957=T 11.835742=T 11.72564=T -7.7743=T -5.8859=T -8.553=T 0.8223=T -0.1528=T 0.538=T 8.07254=T -0.02081=T 4.9496327074=T 5.0770159238=T 0.382607082=T pbc="F F F"
C        3.23832149      -1.09284203      -0.80514703
O        2.48796045      -0.06964207      -0.15154184
C        3.15063096       1.10162329       0.08918727
C        4.43374508       1.38914664      -0.21142011
N        5.03599561       2.61525791       0.09631507
C        6.31804847       3.00013848      -0.26116076
N        7.22080841       2.37945411      -0.93416339
H        2.56063241      -1.94673500      -0.91103479
H        4.11463359      -1.38708025      -0.20228300
H        3.57514894      -0.76070014      -1.80223634
H        2.49117007       1.81734866       0.58501109
H        5.08419390       0.67120480      -0.70615065
H        4.49070112       3.28956643       0.62550856
H        6.55353360       4.00331048       0.11951344
H        6.90520588       1.45412869      -1.25513751
