15
Properties=species:S:1:pos:R:3 -1546.2218662295973=T 11.597278=T 12.4877=T -9.3339=T -7.185=T -9.788=T 0.2809=T -1.4719=T -0.119=T 9.29375=T 0.58416=T 5.0521939266=T 11.1362117438=T 0.267487687=T pbc="F F F"
C        1.18705960       0.00436082      -0.37434185
N        2.64577651      -0.07934447      -0.45813347
C        3.29842138       1.15010549      -0.03984443
C        4.80832158       1.01309261       0.03684212
C        5.47450085      -0.15005262      -0.08295670
C        5.52040785       2.23688268       0.25508556
N        6.05880523       3.25914882       0.43795600
H        0.74813907      -0.92220928      -0.76748222
H        0.74803624       0.86092629      -0.92572670
H        0.88733480       0.09366072       0.68074009
H        2.91782995      -0.28851688      -1.42259044
H        2.92760873       1.41353688       0.96689555
H        3.06040244       2.02697284      -0.68132664
H        4.92063123      -1.07715149      -0.22739409
H        6.56092453      -0.18611239      -0.01998279
