21
Properties=species:S:1:pos:R:3 -1951.2004400106798=T 12.718537=T 14.09706=T -8.5967=T -6.4805=T -10.046=T 0.9263=T -0.0157=T 3.139=T 9.29815=T -2.84191=T 8.0787541796=T 11.9363677934=T 0.115735445=T pbc="F F F"
C        1.09878340      -0.19726242      -0.11246683
N        2.47570383       0.04665364       0.31400607
C        2.90089884       1.45326009       0.22003048
C        2.22762108       2.28004691       1.32057384
C        4.43279624       1.49780595       0.30560899
C        5.05655375       2.87649246       0.08978361
N        6.52209310       2.75756690      -0.00858995
H        0.92844979      -1.28064718      -0.17758419
H        0.84397489       0.25470746      -1.09556678
H        0.38915051       0.19646217       0.62983986
H        3.10133262      -0.51209687      -0.27101302
H        2.60185846       1.88780158      -0.76426570
H        2.53250959       1.90984707       2.31131584
H        1.13263818       2.21785292       1.25593555
H        2.49675655       3.34208769       1.24039485
H        4.85605280       0.82295698      -0.45875475
H        4.74014745       1.09564609       1.28778772
H        4.72244432       3.56867003       0.88758558
H        4.69350014       3.29307004      -0.86520030
H        6.89746586       2.42316048       0.88387293
H        6.93433861       3.68204800      -0.15581379
