19
Properties=species:S:1:pos:R:3 -1808.5050446195128=T 13.181936=T 13.89414=T -8.0552=T -6.1228=T -8.898=T 1.1297=T 0.0323=T 0.862=T 8.33845=T -0.25901=T 4.8520433268=T 5.3711231144=T 0.292408624=T pbc="F F F"
C        1.87282100       2.22370263       1.89382997
C        3.26356876       1.75745255       1.60846108
N        4.19138543       2.58903101       1.28803454
N        5.46492795       2.11663055       1.11047183
C        6.30297538       2.92992222       0.21042780
C        6.55068507       4.30560763       0.82725123
C        7.60444735       2.16907944      -0.03524935
H        1.14407948       1.74135099       1.22239689
H        1.80613680       3.31141305       1.76649903
H        1.57038214       1.97006185       2.92316605
H        3.47621213       0.67381053       1.69586674
H        5.50831108       1.11338455       0.88350011
H        5.78538846       3.06855750      -0.76087853
H        7.11849567       4.20740781       1.76468885
H        5.59736966       4.80075690       1.05054725
H        7.12121345       4.93821145       0.13236887
H        8.14211583       2.00565752       0.91094061
H        8.25706035       2.74066853      -0.70871072
H        7.41969401       1.18930329      -0.50281228
