17
Properties=species:S:1:pos:R:3 -1798.8881313991935=T 11.793734=T 12.63018=T -8.6307=T -6.5769=T -8.719=T 1.2135=T 0.0405=T 1.421=T 8.23739=T -0.77302=T 5.8552264514=T 0.247647429=T pbc="F F F"
C        1.00644550      -0.17538886      -0.01312199
C        2.49565123       0.19776137      -0.05262498
C        2.85258778       1.44546112       0.73587057
C        3.90366301       1.25440251       1.55080786
C        4.37910434      -0.15925210       1.51248665
C        3.36265450      -1.17621079       2.00835654
C        3.44202440      -0.85906725       0.53373223
H        0.81390241      -1.08111883      -0.60628573
H        0.38576385       0.63404594      -0.42527030
H        0.67304347      -0.36596153       1.01743901
H        2.76813831       0.36233628      -1.11329992
H        2.28693214       2.37489792       0.64560390
H        4.34366262       2.01210342       2.20152387
H        5.44253602      -0.39455677       1.57863809
H        3.73769678      -2.15362358       2.31626536
H        2.52440482      -0.79527567       2.59487596
H        3.82034882      -1.64109320      -0.12522711
