12
Properties=species:S:1:pos:R:3 -1369.1227917990082=T 10.999891=T 12.03623=T -10.5078=T -8.3238=T -10.028=T 1.0963=T -0.6735=T 0.568=T 9.56406=T -0.08223=T 4.3601412704=T 6.5435099332=T 0.326792135=T pbc="F F F"
C        1.42221944      -0.45607237       0.97620081
C        2.32187600      -0.09911632       0.06049098
C        3.01999475       1.26030786       0.01119111
C        2.64835374       2.17911502       1.08845460
C        2.32739130       2.94181516       1.97274274
C        4.48388890       1.07060127      -0.03956689
N        5.63407378       0.89542950      -0.11005992
H        0.95262682      -1.43878700       0.93795885
H        1.13094021       0.21813966       1.78344390
H        2.61805241      -0.77788732      -0.74277072
H        2.74766428       1.73774898      -0.95160441
H        2.05056837       3.61866555       2.75551895
