17
Properties=species:S:1:pos:R:3 -1745.508028787873=T 12.127212=T 13.46888=T -9.2402=T -7.0287=T -9.199=T 1.2397=T -0.8051=T -0.033=T 8.67783=T 0.68168=T 3.6640590692=T 6.2847759484=T 0.422503814=T pbc="F F F"
C        0.48927630       1.60502110       0.38462708
C        1.94177895       1.38800031       0.68091977
C        2.94540398       1.57932678      -0.18648223
C        4.40016001       1.36631305       0.11452405
C        5.22117084       2.65062835      -0.03931547
C        6.70087825       2.49451674       0.20101440
O        7.26109034       1.44943185       0.47734660
H       -0.08957784       0.67825636       0.52665326
H        0.33451848       1.94983171      -0.64738760
H        0.05127936       2.35278013       1.06540893
H        2.18657352       1.04040993       1.69275632
H        2.70413522       1.92545731      -1.20075272
H        4.82326780       0.60324325      -0.56058520
H        4.52550349       0.97255372       1.13459924
H        4.86025999       3.44340965       0.64232033
H        5.10619068       3.08866049      -1.04935305
H        7.28812065       3.44646926       0.10605628
