18
Properties=species:S:1:pos:R:3 -1736.8005113615764=T 11.450086=T 12.92975=T -8.7825=T -6.6087=T -10.214=T 0.9269=T -0.0076=T 3.024=T 9.47954=T -2.71084=T 8.1070849806=T 10.8304126734=T 0.236442561=T pbc="F F F"
C        1.31103084       0.04109557      -0.78473737
N        2.77095805       0.01194892      -0.76812267
C        3.34138525       0.82967694       0.30218130
C        4.84879202       0.85308408       0.22435756
C        5.56920434       1.83576598      -0.70182755
C        5.64526156       1.98973366       0.79597572
O        6.84040522       1.79404110       1.52090400
H        0.93975630      -0.53112951      -1.64611177
H        0.87538348       1.06262209      -0.82927177
H        0.92532004      -0.44300869       0.12613507
H        3.13147247       0.35182587      -1.66379840
H        3.02464798       0.39335770       1.26643506
H        2.95958465       1.87756904       0.29387842
H        5.31452267      -0.13563353       0.29576580
H        4.97394579       2.55862433      -1.26472195
H        6.46129355       1.47869026      -1.21909484
H        5.09130036       2.81971851       1.23933334
H        7.22631542       0.94283767       1.24960007
