19
Properties=species:S:1:pos:R:3 -1887.3391631950556=T 11.662836=T 12.84615=T -9.4147=T -7.2915=T -10.785=T 1.075=T -0.7754=T 0.118=T 9.89533=T 0.54917=T 3.7396905292=T 8.2578147608=T 0.150804599=T pbc="F F F"
C        3.46910837      -0.68377682      -1.22688762
C        3.00494751       0.12522137      -0.01324300
C        3.28722482       1.65231352      -0.07076705
C        2.67327206       2.32171775      -1.30284731
C        2.74895916       2.29575811       1.22623494
C        4.80013700       1.83323706      -0.04264630
O        5.47014882       2.42397889      -0.86771266
H        3.26824750      -1.75324568      -1.07216192
H        4.54909175      -0.57245537      -1.40564759
H        2.94813205      -0.38026781      -2.14547691
H        3.47897350      -0.27817430       0.89906654
H        1.91848667      -0.00295450       0.12962532
H        3.11804231       1.94608425      -2.23313319
H        2.84458574       3.40664449      -1.27904161
H        1.58803283       2.14340773      -1.33341859
H        3.22223777       1.86075622       2.12007939
H        1.66483497       2.12539071       1.30379917
H        2.92625226       3.38095817       1.23627532
H        5.28814490       1.35799621       0.85277306
