18
Properties=species:S:1:pos:R:3 -1759.996726245579=T 11.072336=T 12.2682=T -9.1781=T -6.9527=T -10.651=T 0.9651=T -0.0067=T 3.07=T 10.03864=T -2.77441=T 8.709520556=T 11.7790667552=T 0.099388055=T pbc="F F F"
N        1.97948057      -0.29400183      -1.35922500
C        2.41955007       0.13176387      -0.02041967
C        3.15107886       1.46926224      -0.11115091
C        2.29285322       2.66462520      -0.53537854
C        3.00675275       3.83245228       0.15505817
C        3.44296205       3.19456788       1.47540056
O        3.67868507       1.79883031       1.19529004
H        1.39294446      -1.12705802      -1.28020852
H        2.79215147      -0.57605868      -1.91453933
H        3.08087906      -0.58834384       0.49894293
H        1.52767527       0.26776443       0.61226934
H        4.00646765       1.35820368      -0.81213733
H        1.26961449       2.54485606      -0.14294295
H        2.22518094       2.76624586      -1.62523512
H        3.88534986       4.14665214      -0.42961418
H        2.36446332       4.71148294       0.30295975
H        4.36921117       3.62803545       1.88443151
H        2.65122971       3.28201003       2.24282926
