20
Properties=species:S:1:pos:R:3 -1887.8118342770072=T 11.869889=T 13.06763=T -8.485=T -6.388=T -9.987=T 0.9048=T -0.0715=T 2.978=T 9.23392=T -2.67285=T 7.9991055732=T 10.4602276732=T 0.130684355=T pbc="F F F"
C        1.17689526      -0.27415172       0.11019409
N        2.61455149      -0.07359121       0.27876228
C        3.03150768       1.33070737       0.18598664
C        2.56411189       2.14204699       1.39634049
C        4.56041827       1.39612854       0.01197139
C        5.36073198       0.79826918       1.16568099
O        4.83894845       0.70715059      -1.22838999
H        0.97436233      -1.34872560       0.00097146
H        0.74985106       0.25098728      -0.77215125
H        0.63047222       0.07012554       1.00096896
H        3.10334941      -0.56834914      -0.47261002
H        2.60753341       1.80888221      -0.72799534
H        2.87695292       1.66359344       2.33544289
H        1.46987029       2.23346179       1.41209759
H        2.97633431       3.16133210       1.36229425
H        4.82602353       2.46533159      -0.10201974
H        5.06756946      -0.24450010       1.34309401
H        5.20123108       1.36644829       2.09281083
H        6.43861626       0.83748338       0.94364718
H        5.80155870       0.58712948      -1.28962670
