19
Properties=species:S:1:pos:R:3 -1875.7419767380052=T 12.414882=T 13.54182=T -9.1114=T -6.9947=T -8.924=T 0.9396=T -0.1135=T 1.295=T 8.33932=T -0.61428=T 6.0502440308=T 0.353631922=T pbc="F F F"
C        1.60222012      -0.07398155       1.40021494
C        2.21195261       0.28939600       0.03645964
C        2.91612945       1.62993540       0.02436103
C        2.01919722       2.84377271       0.02089223
O        1.25761672       2.95611165      -1.20078747
C        4.26269145       1.70496781      -0.00599912
C        5.13844641       2.92273436      -0.01591496
H        1.10678680      -1.05480340       1.35358735
H        0.84664582       0.65921742       1.71904717
H        2.37793125      -0.11934327       2.17894345
H        1.41158870       0.30218328      -0.72167497
H        2.92413141      -0.49465922      -0.26422336
H        2.58887826       3.76863315       0.20807354
H        1.26002232       2.76530840       0.81405526
H        1.90020121       2.93696025      -1.93289086
H        4.80907321       0.75315274      -0.02075784
H        4.58045118       3.86357805      -0.10130255
H        5.85350329       2.87606018      -0.85264060
H        5.74396257       2.97613602       0.90370713
