15
Properties=species:S:1:pos:R:3 -1552.6067115756935=T 10.155347=T 11.43023=T -9.4518=T -7.418=T -10.811=T 0.8713=T -0.9481=T -0.064=T 9.82753=T 0.75688=T 3.7390829978=T 11.1460190364=T 0.189176384=T pbc="F F F"
C        0.90173413      -0.03666163      -0.33513345
C        2.13932063       0.70619539       0.08777562
O        3.30485775      -0.06793528       0.41372124
C        3.35066113       0.75561980      -0.77299931
C        4.25041680       1.96305055      -0.78201198
C        4.85059910       2.40548205       0.53082541
O        4.47051071       2.52783668      -1.84622045
H        0.20962467       0.64297578      -0.85298355
H        0.38237941      -0.44484062       0.54368063
H        1.15259349      -0.86632465      -1.00869877
H        1.97540531       1.55657713       0.76366198
H        3.31635689       0.21977771      -1.72865668
H        4.09144670       2.47792744       1.32262133
H        5.35842326       3.36599829       0.39544168
H        5.57044003       1.64471135       0.87050629
