18
Properties=species:S:1:pos:R:3 -1738.9503806542018=T 11.14463=T 12.51124=T -9.4524=T -7.1214=T -10.778=T 0.8645=T -0.1129=T 2.813=T 10.1303=T -2.52794=T 8.7099793042=T 10.5651322278=T 0.117035485=T pbc="F F F"
N        0.82540148       0.11227635      -0.21553161
C        2.28207128      -0.06945765      -0.30338415
C        3.00984114       1.17738330       0.20100970
C        4.52515191       1.04183683       0.16926438
C        5.24741090       1.08077384      -1.19684101
O        6.15000299       2.13082023      -0.74388572
C        5.37712436       2.29121221       0.48183116
H        0.34750785      -0.73992859      -0.51681105
H        0.52988630       0.84666496      -0.86500238
H        2.64463228      -0.31296547      -1.32442812
H        2.55091855      -0.92613574       0.33707113
H        2.66843725       1.39028767       1.22753163
H        2.71428084       2.04694156      -0.41475249
H        4.84516336       0.17615059       0.76990322
H        4.61015258       1.42891924      -2.03137816
H        5.79639071       0.17829706      -1.50876189
H        6.01816827       2.25464749       1.37660415
H        4.80511795       3.23720614       0.47796122
