13
Properties=species:S:1:pos:R:3 -1382.2577781907985=T 10.066004=T 10.48908=T -7.8822=T -5.8899=T -8.126=T 0.744=T -0.1562=T 0.622=T 7.66278=T 0.01649=T 4.4665088598=T 6.635544741=T 0.288884207=T pbc="F F F"
C        3.08250292      -1.11283940       0.54464765
O        2.30763440       0.06930346       0.28536643
C        3.02486208       1.21723920       0.17982517
C        2.48169620       2.46757271      -0.06684933
N        3.58274537       3.31248954      -0.08762597
C        4.69529445       2.55766059       0.13925246
N        4.38649106       1.27546967       0.30618294
H        2.35391778      -1.92906258       0.59793676
H        3.62981822      -1.02733268       1.49487040
H        3.80489575      -1.29834849      -0.26375131
H        1.46649272       2.80950391      -0.22043785
H        3.55811891       4.31474879      -0.24439959
H        5.69445013       2.98085530       0.17341224
