15
Properties=species:S:1:pos:R:3 -1466.7133014795374=T 12.866922=T 12.35322=T -7.9647=T -6.045=T -8.29=T 0.9386=T -0.613=T 0.03=T 7.86864=T 0.66872=T 4.4847348018=T 4.5701487572=T 0.494568162=T pbc="F F F"
C        0.85803853      -0.11295861      -0.15614577
C        2.34421324       0.00716288      -0.26052941
C        3.04499942       1.10334209       0.08847524
N        4.43036017       1.17399585      -0.01821108
C        5.04506132       2.25324997       0.34253119
N        6.39880645       2.34118611       0.12985003
O        7.00714951       1.12139281      -0.23873272
H        0.56742818      -0.95168365       0.49781594
H        0.40269592      -0.31462930      -1.13981804
H        0.40346787       0.80379723       0.24610559
H        2.90183816      -0.85132640      -0.64785859
H        2.51519479       1.98849628       0.47791556
H        4.58577635       3.16068686       0.76352633
H        6.95613405       2.79390164       0.85638051
H        6.19566604       0.54361623      -0.32530479
