19
Properties=species:S:1:pos:R:3 -1922.941018667758=T 12.97994=T 14.33151=T -8.9029=T -6.8203=T -9.186=T 1.0865=T 0.0376=T 1.343=T 8.68593=T -0.74033=T 6.3857997412=T 0.415534441=T pbc="F F F"
C        1.00002460      -0.02193218      -0.02713410
C        2.51021029      -0.08818037      -0.03064651
C        3.30876257      -0.81356110      -1.09644024
C        2.66177455      -1.54037135      -2.25552467
C        3.33948716       0.69812067      -1.05031102
C        4.52234272       1.48571649      -0.62669883
C        5.76023639       1.01999867      -0.40853998
H        0.64823801       0.84555807       0.55157879
H        0.56280744      -0.92436805       0.42869021
H        0.58758976       0.07077211      -1.04130891
H        2.96281855      -0.12477528       0.96500395
H        4.20832570      -1.30599446      -0.71707399
H        1.78637154      -1.00230083      -2.64534292
H        2.32968334      -2.54853449      -1.96218184
H        3.37291087      -1.65166010      -3.08787290
H        2.72254291       1.19193458      -1.80998569
H        4.33196718       2.55399662      -0.46561205
H        6.02023632      -0.02948368      -0.56586770
H        6.55826008       1.67989467      -0.06668160
