17
Properties=species:S:1:pos:R:3 -1648.087799758751=T 11.902065=T 12.57824=T -8.3029=T -6.3476=T -10.054=T 1.3622=T -0.4451=T 0.702=T 10.17711=T -0.11803=T 4.6522150906=T 6.9343881968=T 0.56478199=T pbc="F F F"
C        1.16669142      -0.17425820       0.06347978
C        2.66715640      -0.28738222       0.16463007
C        3.50128421      -1.12590220      -0.73296420
C        2.95105934      -1.96784969      -1.85676513
N        3.59615812       0.38091652      -0.82445530
N        2.86151083       0.87029413      -1.96443443
C        3.40781560       1.92385150      -2.43843162
H        0.83577137       0.82544219       0.38234156
H        0.69896130      -0.91041008       0.73415136
H        0.79454406      -0.33860753      -0.95258865
H        3.05121463      -0.13547400       1.17870776
H        4.42811206      -1.51967051      -0.30300568
H        2.01927972      -1.56983294      -2.27061060
H        2.76722135      -2.98929296      -1.49160553
H        3.67988322      -2.03317727      -2.67842750
H        2.93653698       2.38780192      -3.30964911
H        4.31700938       2.36558134      -2.00419277
