18
Properties=species:S:1:pos:R:3 -1789.7010911287223=T 12.686148=T 13.54817=T -8.3854=T -6.417=T -9.541=T 1.4658=T -0.0872=T 1.338=T 8.98338=T -0.73724=T 6.6788530508=T 0.459835251=T pbc="F F F"
C        1.06169573      -0.36264656       0.35123466
N        2.41099938       0.12458298       0.13998891
C        2.88088945       1.27504389       0.94593736
C        4.27684159       0.61591370       1.00226122
C        3.53725346      -0.70819597       0.65023033
C        4.14276311      -1.65995479      -0.32752196
C        4.38472294      -2.95264262      -0.07859530
H        0.91142238      -1.29019919      -0.22036309
H        0.33656420       0.37978833      -0.01420548
H        0.83890985      -0.57070158       1.42185748
H        2.40857652       1.31577301       1.95022740
H        2.77827327       2.25738742       0.45969798
H        4.93215103       0.94716524       0.18601256
H        4.81941734       0.64018541       1.95391388
H        3.26011767      -1.24669191       1.58379287
H        4.39297288      -1.23025579      -1.30433056
H        4.13140668      -3.40084959       0.88602205
H        4.84601252      -3.60435198      -0.82207032
