13
Properties=species:S:1:pos:R:3 -1347.371452065739=T 9.921181=T 10.31432=T -9.302=T -7.3579=T -9.966=T 0.6865=T -0.9806=T -0.205=T 9.38707=T 0.76336=T 4.1606725936=T 5.5258452438=T 0.401824389=T pbc="F F F"
C        0.89974526      -0.00299922      -0.09755385
C        2.38619272       0.07621293      -0.18287678
C        3.15035609       1.03408151       0.36386647
C        4.63401658       1.00872075       0.21147595
N        5.28355637       2.05630783       0.82500149
O        5.24770772       0.13640362      -0.40546541
H        0.58763510      -0.94979326       0.37179058
H        0.45230950      -0.00013623      -1.10448857
H        0.46978296       0.82864378       0.47680082
H        2.91056658      -0.71045492      -0.73727126
H        2.69413335       1.85202450       0.93206054
H        4.78911689       2.77864826       1.33441697
H        6.29483088       2.09824044       0.75914305
