13
Properties=species:S:1:pos:R:3 -1417.936599710747=T 10.729005=T 12.05859=T -10.1549=T -8.087=T -10.348=T 0.4127=T -1.4082=T -0.58=T 10.10033=T 1.13426=T 3.6090092852=T 11.3671232702=T 0.686978511=T pbc="F F F"
C        0.95979974      -0.06231645       0.00304047
C        2.49801965      -0.03193736      -0.00021834
C        3.04775959       1.31439813       0.00006347
C        3.47226594       2.45701657       0.00025185
C        3.92898734       3.82739684       0.00047697
O        5.29422678       3.97416801      -0.00010987
O        3.20058693       4.79676873       0.00027173
H        0.60396005      -1.10108678       0.00296864
H        0.55796980       0.44380339      -0.88403842
H        0.56176249       0.44236081       0.89264892
H        2.88793187      -0.56873531      -0.88155665
H        2.89167400      -0.57067343       0.87826746
H        5.69643581       3.08301685      -0.00012625
