11
Properties=species:S:1:pos:R:3 -1172.704864786915=T 9.017484=T 8.86396=T -8.3601=T -6.3366=T -8.248=T 0.8019=T -0.33=T 0.847=T 7.78685=T -0.30217=T 4.8667108706=T 6.2791965784=T 0.446351185=T pbc="F F F"
O        0.94133929       0.19988148      -0.32210872
N        2.31991567       0.11469517      -0.12716555
C        3.16626483       1.19743047      -0.12652406
C        4.44921607       0.68894194       0.00965146
C        4.35156462      -0.72986207       0.07740230
C        3.01021845      -1.06853403      -0.01814019
H        0.56699702       0.26747263       0.58015465
H        2.77901852       2.20431177      -0.23097245
H        5.35789119       1.28176784       0.05017040
H        5.17075553      -1.43490322       0.18013698
H        2.48802880      -2.01821199      -0.02894482
