12
Properties=species:S:1:pos:R:3 -1309.078259170397=T 11.81866=T 10.78878=T -9.3988=T -7.4547=T -9.306=T -0.8245=T -2.4505=T -1.325=T 8.78458=T 1.90073=T 3.3645956834=T 4.4884543818=T 0.9794161=T pbc="F F F"
C        1.43701618      -0.53888377      -0.21492730
C        2.73991273      -0.25875676      -0.00989704
C        3.28856788       1.07498764      -0.09217935
C        4.59259679       1.39324644       0.10672317
C        5.05592554       2.77579379       0.00032139
O        6.21575503       3.13695242       0.16485831
H        1.05455273      -1.55712688      -0.14587474
H        0.72011761       0.24856932      -0.45837070
H        3.43600191      -1.06810179       0.23238759
H        2.58788989       1.88421915      -0.33502046
H        5.34084765       0.63396670       0.35137424
H        4.25255607       3.51743374      -0.25191512
