15
Properties=species:S:1:pos:R:3 -1464.9915054196947=T 10.565363=T 11.31902=T -9.2221=T -7.2231=T -10.095=T 0.8309=T -0.2553=T 0.89=T 9.37642=T -0.27901=T 4.9347419888=T 12.0825348888=T 0.263195015=T pbc="F F F"
O        1.00043131       1.27874815      -1.36411012
N        2.19699943       1.58860711      -0.64280623
C        3.24581754       0.66462486      -0.88564931
N        3.12082470      -0.50710234      -1.38678234
C        4.55809519       1.19548470      -0.41553612
C        5.64514150       0.20950859      -0.04099002
C        5.77536210       0.99748110      -1.30927742
H        0.35281611       1.12620567      -0.65045659
H        2.45847759       2.54611147      -0.90083019
H        2.14993404      -0.64850229      -1.69575599
H        4.51234317       2.12166727       0.16133651
H        5.36662491      -0.84000648      -0.13727553
H        6.28182168       0.46740956       0.80524731
H        6.50116334       1.80999314      -1.35379095
H        5.59067739       0.46767950      -2.24409301
