16
Properties=species:S:1:pos:R:3 -1605.8717460723344=T 10.28466=T 11.28471=T -9.017=T -6.8672=T -10.519=T 0.8631=T -0.0895=T 2.874=T 9.93352=T -2.64609=T 8.4052465134=T 12.7780343558=T 0.101814032=T pbc="F F F"
N        1.03970463      -0.02586266      -0.00359490
C        2.49702399      -0.00292508      -0.00958060
C        3.10714116       1.05388731      -0.99876173
C        2.76403698       0.05193157      -2.14728124
C        3.16082118      -0.95833678      -1.04905140
O        4.57277218      -0.70872324      -0.83747959
C        4.59296071       0.75650603      -0.80259176
H        0.68074238       0.78620568       0.50443609
H        0.70746847      -0.85015666       0.50286904
H        2.97571450      -0.03858727       0.98865504
H        2.78990811       2.10473440      -1.00457458
H        3.38308968       0.06981467      -3.05443065
H        1.69305547       0.03627317      -2.36902201
H        2.98225450      -2.03923012      -1.09512408
H        5.23117975       1.14051144      -1.61472429
H        4.98964633       1.09485754       0.16853667
