17
Properties=species:S:1:pos:R:3 -1745.5455069633801=T 11.577003=T 12.34475=T -9.3743=T -7.2651=T -9.339=T 1.0672=T -0.1996=T 1.341=T 8.70821=T -0.70505=T 6.4633157884=T 0.420264501=T pbc="F F F"
C        1.00748752       0.05840383       0.09924173
C        2.34175848      -0.02001258       0.01642806
C        3.11701271      -1.31306767      -0.01431277
C        4.12470687      -1.29918996      -1.17906598
C        4.93766755      -0.00623488      -1.15763458
O        4.09855016       1.15050365      -1.21203471
C        3.21671721       1.20582183      -0.07918707
H        0.49464627       1.02270181       0.10281478
H        0.38512252      -0.83605964       0.17486360
H        2.43888217      -2.17641305      -0.08093458
H        3.67987998      -1.41163379       0.93308863
H        4.80259276      -2.16520555      -1.11583324
H        3.58480857      -1.36510021      -2.13696261
H        5.56671080       0.03123537      -0.24281649
H        5.60145351       0.06500908      -2.03105662
H        3.82278975       1.30359516       0.84764393
H        2.61837317       2.11886660      -0.19969208
