15
Properties=species:S:1:pos:R:3 -1588.614956714518=T 13.041721=T 12.8773=T -8.5468=T -6.5912=T -8.586=T 0.4894=T -1.0735=T 0.186=T 8.03631=T 0.3503=T 5.1683068156=T 0.672059156=T pbc="F F F"
C        3.15623645      -0.36010888      -0.06809650
C        4.39793155       0.04568527      -0.34358495
O        4.89968069       1.22124529       0.16919534
C        5.88402314       1.87959260      -0.54687773
C        6.08430644       1.71861430      -1.87258853
C        6.66866673       2.79806332       0.27474304
C        6.51568631       2.97631396       1.59718275
H        2.82212959      -1.33386308      -0.41873087
H        2.47120260       0.25595657       0.51322452
H        5.11212349      -0.53684629      -0.93310074
H        5.45748878       1.07872872      -2.48935732
H        6.88896449       2.26825904      -2.35600000
H        7.41978898       3.37068790      -0.27454281
H        5.76798796       2.41953097       2.16228150
H        7.13745279       3.68903032       2.13813231
