13
Properties=species:S:1:pos:R:3 -1453.2727337627166=T 12.665694=T 12.63022=T -9.3575=T -7.5297=T -9.438=T -0.8531=T -2.4741=T -1.132=T 8.98902=T 1.65642=T 3.3593138798=T 4.2791040208=T 0.400305955=T pbc="F F F"
C        3.05214915      -1.36306254       0.06563524
C        2.33097667      -0.02697128       0.04832331
O        1.10164258       0.03540350       0.04697483
C        3.11729340       1.22719989       0.02941281
C        4.47219174       1.28834075       0.02579339
C        5.21455103       2.48885149       0.00362845
C        5.88478559       3.50558547      -0.01293141
H        3.70991603      -1.44789503       0.94310722
H        3.67879368      -1.48297941      -0.83060489
H        2.30599372      -2.16385254       0.09358537
H        2.51933636       2.14117943       0.01591512
H        5.05782041       0.36330207       0.03934757
H        6.46607963       4.40508820      -0.02834701
