9
Properties=species:S:1:pos:R:3 -1127.4369817563888=T 10.660277=T 11.79125=T -11.1844=T -8.9631=T -10.444=T -0.1783=T -2.0536=T -0.323=T 10.01143=T 0.61392=T 3.6302604856=T 7.9490648236=T 1.067236381=T pbc="F F F"
N        0.96210288      -0.12646558       0.00000000
C        2.12265504      -0.02874337       0.00000000
C        3.58779513       0.05851284       0.00000000
C        4.08113563       1.42840652       0.00000000
C        4.50961610       2.56760501       0.00000000
C        4.99590043       3.84265174       0.00000000
N        5.41928786       4.93728073       0.00000000
H        3.97147347      -0.47760395      -0.88462957
H        3.97147347      -0.47760395       0.88462957
