15
Properties=species:S:1:pos:R:3 -1529.324080310711=T 10.699271=T 11.35623=T -9.4055=T -7.5529=T -10.441=T 1.1225=T -0.5969=T -0.057=T 9.85779=T 0.5403=T 4.265490358=T 8.8764181106=T 0.283277195=T pbc="F F F"
C        1.06299514      -0.20010722      -0.27213676
C        2.55179024      -0.47561473      -0.30320849
N        3.12068837      -1.56183834      -0.68687239
N        3.29762925       0.62051738       0.14914179
C        4.68059806       0.83852798       0.29900192
C        5.63324982      -0.26271281      -0.07360694
O        5.03969046       1.92943403       0.73106169
H        0.81062735       0.66032656      -0.90965902
H        0.72905617       0.03100877       0.75053734
H        0.50426336      -1.07213790      -0.62969029
H        2.40583563      -2.23628314      -0.97807052
H        2.76951211       1.44359590       0.43670947
H        5.42305622      -1.17103957       0.50592607
H        6.65000520       0.09720915       0.11284018
H        5.50234263      -0.55103605      -1.12466403
