17
Properties=species:S:1:pos:R:3 -1689.220312115619=T 11.498188=T 12.86626=T -9.2473=T -7.0891=T -10.483=T 0.7394=T -0.2765=T 1.493=T 9.74185=T -1.08131=T 5.3745823238=T 11.0666060034=T 0.205215495=T pbc="F F F"
C        1.05943520      -0.05716547      -0.04141184
N        2.52013526      -0.07721318      -0.13769602
C        3.09779616       1.26200700      -0.11567376
C        4.63855248       1.19888891       0.00237497
C        5.31618157       0.53153560      -1.20887878
C        5.16828559       2.54924687       0.20728519
N        5.58477263       3.62829666       0.36140397
H        0.67574444      -1.08284142      -0.12545328
H        0.56066875       0.56634898      -0.81159156
H        0.76463241       0.32939238       0.94575804
H        2.78316216      -0.54713576      -1.00669713
H        2.70166840       1.78422880       0.76927680
H        2.82902195       1.88236052      -0.99863027
H        4.87282787       0.61436845       0.90859568
H        5.05664425       1.05586351      -2.13950985
H        5.00094733      -0.51724306      -1.28712430
H        6.40813355       0.54476122      -1.10215785
