17
Properties=species:S:1:pos:R:3 -1720.4423006725624=T 11.658711=T 12.92632=T -9.9242=T -7.6838=T -9.955=T 0.9292=T -0.0579=T 2.183=T 9.54588=T -1.77828=T 4.3475318942=T 10.3357457292=T 0.435080474=T pbc="F F F"
C        1.20371549      -0.39327936      -0.01754538
C        2.71548995      -0.17380084       0.03714063
C        3.10189106       1.30475158       0.16203178
O        2.54237122       1.91877134       1.32679976
C        4.63629733       1.52439608       0.11446648
C        5.30959220       0.97726153       1.28625689
C        5.80971222       0.53385842       2.30086982
H        0.96091196      -1.46378569      -0.06935525
H        0.76282632       0.09336975      -0.90128399
H        0.71580815       0.02809274       0.87184735
H        3.19001051      -0.58200576      -0.87187392
H        3.15263304      -0.72422089       0.88799727
H        2.66579558       1.86277031      -0.68403504
H        3.02908386       1.55871618       2.09435500
H        4.83233877       2.60713879       0.06100009
H        5.04764628       1.07209996      -0.80301053
H        6.28123606       0.14001587       3.17818903
