14
Properties=species:S:1:pos:R:3 -1540.8068010034985=T 12.17587=T 12.32649=T -9.3369=T -7.4068=T -9.051=T -0.3671=T -1.9744=T -0.549=T 8.5055=T 1.16722=T 4.9636803212=T 0.58335331=T pbc="F F F"
C        1.07284282      -0.14612897       0.44863149
C        2.47231341      -0.06764585      -0.09927650
C        3.05651989      -1.11592584      -0.71347466
C        3.19583556       1.21355381       0.05967694
C        2.68536787       2.31417282       0.66183043
C        4.53358091       1.28878613      -0.46380327
N        5.61898521       1.33951484      -0.89400752
H        0.41397517       0.59730449      -0.02591877
H        1.05557490       0.04551678       1.53247706
H        0.64651676      -1.14070465       0.27185163
H        2.52384278      -2.05981819      -0.83109446
H        4.07059131      -1.05776455      -1.11003862
H        1.67845302       2.31406551       1.07545477
H        3.26964039       3.22853368       0.74710148
