15
Properties=species:S:1:pos:R:3 -1669.3318674733737=T 13.600018=T 12.85871=T -7.7344=T -5.8999=T -7.711=T 0.1183=T -1.376=T -0.068=T 7.154=T 0.65841=T 3.9158746352=T 6.415903542=T 0.501713286=T pbc="F F F"
C        2.48470124      -1.08494581       0.59392432
C        2.08271050       0.16198611       0.26873836
C        2.93042706       1.32428799       0.13022107
C        2.52541591       2.59189344      -0.20007318
C        3.67255998       3.48734369      -0.24043581
C        4.79720778       2.78911793       0.06290001
C        4.42882698       1.35623344       0.32509110
H        1.77075106      -1.90397615       0.67590545
H        3.53306487      -1.32204594       0.78676183
H        1.01635616       0.33640050       0.08715217
H        1.49626024       2.89024268      -0.40376119
H        3.62089732       4.54952819      -0.47872898
H        5.81293730       3.17682759       0.11512586
H        4.94649838       0.66778466      -0.36543197
H        4.71646522       1.03943168       1.34276096
