13
Properties=species:S:1:pos:R:3 -1318.4569667979672=T 8.910072=T 9.88876=T -10.649=T -8.4123=T -11.996=T 1.1423=T -0.2833=T 1.259=T 11.5819=T -0.90322=T 5.4016608662=T 11.4751026776=T 0.168976486=T pbc="F F F"
C        1.02208666      -1.68511618       0.04437706
C        1.93685163      -0.48090609       0.12705344
O        1.11558045       0.69382450       0.27440613
C        1.86859466       1.88257353       0.39680540
C        2.60035171       2.24320889      -0.83407438
N        3.17925202       2.51290000      -1.80995298
H        1.61918621      -2.60067505      -0.06458743
H        0.35213178      -1.60373269      -0.82189247
H        0.41026104      -1.77519676       0.95212812
H        2.55477019      -0.38955510      -0.78469170
H        2.62035654      -0.55704130       0.99520896
H        2.60290471       1.82360918       1.22420038
H        1.15809240       2.68913708       0.62951946
