18
Properties=species:S:1:pos:R:3 -1785.841011226138=T 12.48685=T 13.74657=T -9.2768=T -7.1153=T -9.78=T 0.8506=T -0.0983=T 2.336=T 9.38107=T -1.92296=T 4.3512018798=T 10.509301332=T 0.669201634=T pbc="F F F"
C        1.10447691      -0.38035435       0.43885759
C        2.61751784      -0.16509799       0.48661069
C        3.05859616       1.25325027       0.08372683
N        2.57970282       2.34002837       0.95423340
C        4.60074848       1.36991778       0.01067545
C        5.22375513       0.49114513      -0.96923508
C        5.72746189      -0.24256840      -1.79570164
H        0.84204775      -1.41019663       0.71911459
H        0.71046391      -0.20221343      -0.57388833
H        0.57037351       0.28962175       1.13015932
H        3.11327227      -0.88796040      -0.18160830
H        2.99604254      -0.37245900       1.50467578
H        2.66687584       1.46475457      -0.92708223
H        2.82288393       2.13192072       1.92878772
H        1.55893097       2.38593050       0.92275311
H        5.02400311       1.15913731       1.00988022
H        4.84857408       2.41850937      -0.21733428
H        6.18126286      -0.88259558      -2.52427483
