17
Properties=species:S:1:pos:R:3 -1683.2478236607758=T 10.471515=T 11.66499=T -9.632=T -7.4541=T -11.262=T 0.8448=T -0.2207=T 2.742=T 10.91951=T -2.43137=T 9.0023258936=T 12.3165336666=T 0.076451748=T pbc="F F F"
O        2.16290558      -0.31276118      -1.37253762
C        2.31183273       0.10277961      -0.00182153
C        3.12128372       1.38969720      -0.00948165
O        4.37769101       1.16444755      -0.65495833
C        2.41232608       2.69636400      -0.50070703
C        3.02271496       3.44759142       0.71432588
C        3.37055232       2.07627875       1.35711951
H        1.87529569      -1.23961042      -1.38249939
H        2.86040328      -0.65779273       0.58284285
H        1.32590095       0.27495582       0.46693313
H        4.15930862       0.70320348      -1.48846693
H        1.31676578       2.61886901      -0.44680689
H        2.70015588       3.03772273      -1.50327432
H        3.92294958       4.01434766       0.44363362
H        2.34878242       4.10329728       1.28130065
H        4.38486917       1.93944989       1.75399340
H        2.63794222       1.76330993       2.11590464
