16
Properties=species:S:1:pos:R:3 -1623.7234281724907=T 10.093758=T 10.94187=T -8.8705=T -6.7479=T -10.243=T 0.8313=T -0.1257=T 3.031=T 9.52516=T -2.79666=T 8.1924245444=T 11.2757579868=T 0.130544302=T pbc="F F F"
C       -1.21250454      -0.72240216      -0.53597032
N       -1.21650633       0.78020586      -0.51924933
C       -0.04012341       1.11505933       0.32764487
C        1.20147443       0.72402565      -0.48518715
O        1.20248630      -0.73498467      -0.43117178
C        0.01549762      -1.07668293       0.32679015
C       -0.02060709       0.00985919       1.40682636
H       -1.07932142      -1.10175843      -1.55994841
H       -2.14312967      -1.14421125      -0.12318087
H       -2.06017041       1.10522789      -0.04164153
H       -0.05808842       2.16074829       0.65830118
H        2.13926933       1.10179813      -0.04540383
H        1.11644945       1.05672984      -1.53085400
H        0.09610007      -2.12514022       0.63736488
H       -0.92986976       0.00233994       2.02437876
H        0.87628384      -0.00355446       2.04101102
