12
Properties=species:S:1:pos:R:3 -1302.2182675528954=T 9.299378=T 9.80786=T -8.3246=T -6.3534=T -8.477=T 0.8392=T -0.062=T 0.097=T 8.12838=T 0.51986=T 4.1997405822=T 9.530617841=T 0.313670492=T pbc="F F F"
C        3.27924698      -1.06478685       0.52853363
O        2.43105975       0.07012387       0.26038369
C        3.03252119       1.26099510       0.13797234
C        2.52843393       2.50818235      -0.11102403
N        3.58740112       3.41228188      -0.14001948
C        4.64794003       2.70308404       0.08397624
O        4.39634782       1.35093104       0.26898526
H        2.60100952      -1.92152732       0.59058352
H        3.81452670      -0.93690155       1.47995024
H        4.00254443      -1.21356786      -0.28557746
H        1.49737055       2.80264305      -0.26692618
H        5.68685797       3.00721224       0.14675224
