18
Properties=species:S:1:pos:R:3 -1747.369192355368=T 11.162171=T 12.38726=T -8.6968=T -6.6222=T -10.227=T 0.9325=T -0.0238=T 2.822=T 9.60897=T -2.5592=T 8.021956193=T 12.1626298448=T 0.088577982=T pbc="F F F"
C        0.92833224       0.02204430       0.11877245
C        2.43746527      -0.03960841      -0.00193519
N        3.23022656       1.02042541       0.72087405
C        4.20790316      -0.02345996       1.20259713
C        5.52538587       0.03831789       0.44215055
C        3.21454967      -1.14068788       0.76153496
O        3.66460156      -2.30922089       0.09694551
H        0.46487547      -0.82530083      -0.40754343
H        0.53241962       0.94975116      -0.32054948
H        0.61437626      -0.02048752       1.17419236
H        2.72264821      -0.02598218      -1.07107419
H        2.67766163       1.36325153       1.51313475
H        4.40419255       0.01505806       2.28621413
H        5.36522464       0.05286029      -0.64738049
H        6.16749820      -0.81894369       0.69370787
H        6.06262696       0.96200899       0.69795970
H        2.62740091      -1.50193214       1.62082764
H        4.22671124      -2.02893413      -0.64797833
