15
Properties=species:S:1:pos:R:3 -1628.6361374188994=T 14.184085=T 15.20481=T -8.8383=T -6.7488=T -8.548=T 0.7124=T -0.873=T 0.559=T 8.09018=T 0.00438=T 3.8017951166=T 5.8795897004=T 0.67263723=T pbc="F F F"
C        1.54076040      -0.60737705       1.00510536
C        2.39368799      -0.16005069       0.07970799
C        3.13037065       1.15796111       0.16836504
C        4.57898431       1.01100373       0.06817787
C        5.79014980       0.88800679      -0.01513305
C        7.19013404       0.68393279      -0.10588655
C        8.11899717       1.66009227      -0.09764709
H        1.02483672      -1.56111085       0.88805683
H        1.32956361      -0.03577056       1.91240542
H        2.59778099      -0.75684795      -0.81455924
H        2.87061355       1.66780274       1.11164168
H        2.78637473       1.82308142      -0.64577251
H        7.51550346      -0.35935555      -0.18538002
H        7.83854947       2.71113134      -0.01891693
H        9.17941308       1.41912044      -0.16749481
