17
Properties=species:S:1:pos:R:3 -1646.8964231410275=T 10.905977=T 11.58275=T -9.0779=T -7.1427=T -9.943=T 0.7129=T -0.3802=T 0.91=T 9.19222=T -0.31238=T 4.8682978914=T 6.3138506654=T 0.189133495=T pbc="F F F"
C        4.60895186      -1.29725321      -0.67181239
C        3.39960363      -0.51893652      -0.15533594
O        2.97903776      -0.99190913       1.12870281
C        3.61008727       1.02065226      -0.14739294
C        4.65179205       1.45406903       0.86707924
N        5.93922211       1.60250940       0.37822588
N        4.44646568       1.57435403       2.13799056
H        4.85807315      -1.00602785      -1.70370012
H        4.38507260      -2.37209811      -0.66042921
H        5.49573587      -1.11604697      -0.04637566
H        2.53817719      -0.71805804      -0.81342156
H        3.69570098      -0.78225922       1.76043193
H        2.65291810       1.49249026       0.11515220
H        3.87539645       1.34844772      -1.16564086
H        6.04765717       1.87832799      -0.59166841
H        6.58977791       2.03721134       1.02939223
H        3.45599021       1.40306704       2.34393224
