20
Properties=species:S:1:pos:R:3 -1885.041793483895=T 11.988265=T 13.19268=T -9.0397=T -6.8883=T -10.409=T 0.9016=T -0.0452=T 2.966=T 9.70391=T -2.65603=T 8.2953949174=T 10.5572343196=T 0.117654956=T pbc="F F F"
C        1.29398482       2.20661204       0.47622833
O        2.68349352       2.16929813       0.76011148
C        3.40013500       1.39124226      -0.19700592
C        4.90369386       1.46507381       0.10136987
C        5.19686144       0.90029441       1.50603477
C        5.64496124       0.64602724      -0.96388558
N        5.30083021       2.88178436      -0.05181738
H        0.81988824       2.82543592       1.24869726
H        0.84779607       1.19386516       0.50185997
H        1.09489874       2.65152306      -0.51722321
H        3.21633261       1.78570997      -1.21562716
H        3.05791331       0.33682522      -0.16115121
H        4.65179687       1.46711304       2.27306488
H        6.27417008       0.96561105       1.72248399
H        4.90074728      -0.15769836       1.58904042
H        5.44319553       1.04675637      -1.96696379
H        5.34852478      -0.41268117      -0.93286068
H        6.73101040       0.69355903      -0.79235223
H        4.74922771       3.44360434       0.60366435
H        6.27990832       2.98906411       0.22880184
