15
Properties=species:S:1:pos:R:3 -1560.731349389705=T 11.66168=T 11.73893=T -7.6791=T -5.8243=T -8.223=T 1.269=T -0.2631=T 0.745=T 7.52161=T -0.11623=T 4.7825615724=T 9.5150080036=T 0.249786526=T pbc="F F F"
C        1.11176430       0.03151664      -0.23082222
N        2.52087353       0.02092704       0.08619885
C        3.27601515      -1.06200634       0.52598741
N        4.52586647      -0.84439004       0.74041841
C        4.72770791       0.58363727       0.41902193
C        3.37169117       1.13067523      -0.01552246
C        3.01906869       2.36869259      -0.41116417
H        0.57003678       0.74608978       0.41007381
H        0.69752429      -0.97064194      -0.06884560
H        0.94896792       0.31438361      -1.28379369
H        2.78550764      -2.02790542       0.66790607
H        5.11916991       1.11046068       1.30372909
H        5.48466365       0.68182772      -0.37505621
H        3.76427562       3.16047752      -0.45388610
H        1.99855696       2.62033565      -0.69633512
