11
Properties=species:S:1:pos:R:3 -1235.8211623892657=T 11.052814=T 10.63084=T -9.3855=T -7.5535=T -9.753=T -1.0381=T -2.772=T -1.71=T 9.18401=T 2.11391=T 3.296849733=T 4.2930400472=T 0.541882269=T pbc="F F F"
N        0.95469633       0.16467640       0.09649200
C        2.31599316      -0.01419404       0.03511563
C        3.00715662      -1.20252025       0.03750841
C        2.39010080      -2.51381109       0.02343222
O        3.01649992      -3.57050017       0.02695895
C        3.07072462       1.20970516       0.01402144
N        3.66779648       2.21335079      -0.01901192
H        0.57733655       1.06946258      -0.16195214
H        0.34759891      -0.63310189      -0.05543576
H        4.09542125      -1.16583392       0.04434020
H        1.26743534      -2.54049354       0.00275097
