13
Properties=species:S:1:pos:R:3 -1182.532815803463=T 7.691157=T 8.15133=T -8.7331=T -6.4665=T -10.061=T 1.0365=T 0.0669=T 3.555=T 9.38484=T -3.32335=T 8.2043767948=T 15.6175121334=T 0.216583733=T pbc="F F F"
C        0.97235841      -0.06864246       0.01366674
C        2.49550623      -0.01208342       0.00032950
N        2.97544433       1.36954792      -0.03475670
C        4.43122985       1.46456219       0.02262159
H        0.61937681      -1.10922244      -0.00104556
H        0.55747334       0.45511712      -0.85889642
H        0.56597199       0.40644956       0.92048915
H        2.87845779      -0.51829775      -0.90290001
H        2.90007489      -0.58040844       0.86883194
H        2.57318344       1.87782245       0.75738785
H        4.86113109       1.03680413      -0.89669563
H        4.89036383       0.93287664       0.88392856
H        4.73224799       2.52049450       0.06785899
