11
Properties=species:S:1:pos:R:3 -1207.7436753649793=T 12.512088=T 12.23485=T -9.0109=T -7.1818=T -9.427=T -0.5357=T -2.1515=T -1.238=T 8.84199=T 1.73545=T 4.2521246672=T 5.8191341268=T 0.494634927=T pbc="F F F"
C        1.08224967      -0.20667755      -0.39237270
C        2.38977920      -0.01652684      -0.15433328
C        3.05240484       1.28565133      -0.10278194
N        2.40060209       2.44258513      -0.29353709
S        3.51771518       3.65280652      -0.14986520
N        4.86979132       2.72980889       0.16080642
C        4.45242594       1.46963707       0.15370856
H        0.65789844      -1.20986539      -0.41567218
H        0.41279174       0.63628302      -0.56827373
H        3.04179663      -0.87699922       0.01924907
H        5.16769497       0.66622702       0.33615208
