15
Properties=species:S:1:pos:R:3 -1569.9917308686474=T 10.716944=T 11.57399=T -8.6635=T -6.5712=T -9.147=T 0.9957=T 0.1344=T 1.08=T 8.66791=T -0.49997=T 5.952629853=T 0.256027245=T pbc="F F F"
C        2.09245477      -0.11238381      -0.01204071
C        0.74243306      -0.82144934       0.16952512
C       -0.41347801      -1.49546243      -0.54811504
C       -1.53645296      -0.49376783      -0.23668618
C       -1.34219763       0.76748687       0.23035678
O       -0.12152402       1.43264883       0.37232162
C        0.79552058       0.58323554      -0.31498233
H        2.73938876      -0.25679162      -0.88070550
H        2.62492374       0.03604960       0.92785080
H        0.53237294      -0.81483378       1.24552884
H       -0.66622299      -2.49046558      -0.14515502
H       -0.25155193      -1.61814993      -1.63180223
H       -2.57520667      -0.82742971      -0.28712663
H       -2.16827613       1.41357409       0.52962145
H        0.62814650       0.67820911      -1.39438094
