18
Properties=species:S:1:pos:R:3 -1787.123744902268=T 12.512956=T 13.40308=T -8.3812=T -6.4091=T -9.559=T 1.6771=T 0.0496=T 1.386=T 9.03944=T -0.81226=T 6.7272819824=T 0.415074475=T pbc="F F F"
C        2.42730423       3.23528411       1.65878525
C        2.71662582       1.97596282       1.31398569
C        3.86011686       1.17914459       1.87390673
N        4.72487593       0.66988904       0.81817043
C        5.62380404       1.63149997       0.12745131
C        6.70658357       0.52811391       0.08474934
C        5.90056479      -0.14165416       1.22223655
H        1.57646808       3.76582034       1.22879553
H        3.03142625       3.77757401       2.39095631
H        2.10464706       1.45777890       0.56807235
H        3.46115567       0.30287594       2.41660225
H        4.42220221       1.79518910       2.61461453
H        5.92583583       2.47415434       0.78386658
H        5.23784273       2.03470334      -0.82024071
H        6.67646254      -0.05237249      -0.84578933
H        7.73782253       0.82572038       0.30582133
H        5.74570886      -1.23126322       1.19355856
H        6.29422301       0.14470906       2.21996731
