16
Properties=species:S:1:pos:R:3 -1621.0483148910566=T 10.723014=T 11.84327=T -9.1873=T -7.0974=T -10.317=T 0.7777=T -0.9558=T 0.324=T 9.59225=T 0.46429=T 3.7217869508=T 12.83131114=T 0.093698164=T pbc="F F F"
C        0.91740234      -0.00766005       0.39245254
C        2.31966287      -0.03060688      -0.20778070
N        3.29711611       1.00284700       0.27316434
C        4.12908022      -0.00834488       1.00913572
C        5.61758160      -0.00460278       0.69560643
C        3.25916891      -1.10478262       0.36839954
O        3.30388577      -2.31142630       0.32473628
H        0.34197868      -0.87937814       0.04991267
H        0.37947166       0.89821537       0.07686896
H        0.94906036      -0.02864326       1.49206675
H        2.25767919      -0.05721590      -1.31012927
H        2.86227850       1.68639294       0.89684675
H        3.96946801      -0.00352792       2.10514363
H        5.78034964      -0.00432203      -0.39061374
H        6.09844956      -0.89478578       1.12606149
H        6.10112656       0.88835124       1.11572862
