19
Properties=species:S:1:pos:R:3 -1804.5554495319923=T 11.520264=T 13.10253=T -9.5902=T -7.3167=T -11.521=T 0.967=T 0.0437=T 3.173=T 10.98742=T -2.93348=T 9.398944709=T 12.2671624414=T 0.109812273=T pbc="F F F"
C        1.40516390      -0.27317838      -0.87938822
O        2.80424921      -0.03738901      -0.85550766
C        3.11374510       1.24690889      -0.31684611
C        4.62771345       1.39642490      -0.26695555
C        5.07678319       2.77348877       0.19381812
O        4.64213378       2.99152702       1.53570666
C        5.04496608       4.26404282       2.01800434
H        1.25122835      -1.27258008      -1.30609662
H        0.87677958       0.47160236      -1.50579828
H        0.97026022      -0.24310911       0.13818956
H        2.68025839       1.35272600       0.69577533
H        2.66924422       2.04148802      -0.95383095
H        5.03708192       1.21463969      -1.27325711
H        5.04924428       0.62912485       0.40047322
H        4.65931676       3.56261370      -0.46732008
H        6.18154826       2.85015778       0.13869623
H        4.67566433       4.35373681       3.04745358
H        4.61854336       5.08385287       1.40833553
H        6.14726565       4.36750211       2.01891802
