18
Properties=species:S:1:pos:R:3 -1789.9143142637315=T 11.683586=T 13.02261=T -8.904=T -6.8456=T -10.367=T 0.9334=T 0.0362=T 2.804=T 9.95512=T -2.39906=T 8.1145861336=T 11.7097833784=T 0.214586677=T pbc="F F F"
C        0.75669122      -0.15449796      -0.51962487
C        2.19189540      -0.09429990      -0.03933147
C        3.25494183      -0.70799148      -0.88776285
N        3.07002623       0.76411039      -0.88320905
C        2.44593338      -0.06374291       1.44598500
C        1.67385760       0.85258795       2.37334073
C        1.48216750      -0.64319523       2.45911134
H        0.73441678      -0.05633758      -1.61207056
H        0.15399746       0.66684189      -0.10347377
H        0.28132723      -1.10786198      -0.24620697
H        2.98520058      -1.19844120      -1.82730825
H        4.12802272      -1.13262080      -0.38386210
H        3.78857778       1.18953013      -0.28601880
H        3.50440383      -0.18684264       1.69804310
H        0.85983899       1.44163089       1.94958289
H        2.22476222       1.35371459       3.16975330
H        1.90090624      -1.17438146       3.31432607
H        0.53863302      -1.04982271       2.09388624
