17
Properties=species:S:1:pos:R:3 -1703.2958085143405=T 11.207048=T 11.88126=T -8.4677=T -6.4737=T -9.282=T 0.7585=T -0.1786=T 0.931=T 8.6462=T -0.3234=T 5.1702409972=T 8.1968756418=T 0.147931808=T pbc="F F F"
C        0.97655409       0.06006674      -0.03069263
C        2.51003207      -0.00569652       0.02540794
C        3.01321916      -0.00682219       1.46967159
C        3.05571407      -1.20683864      -0.81655153
N        3.42952957      -0.67715705      -2.14159179
C        3.41670262       0.60337070      -2.00716926
N        3.10586158       1.11728119      -0.75279172
H        0.62533083       0.03367309      -1.07235060
H        0.60011258       0.97984973       0.44397256
H        0.53372422      -0.79476079       0.50203138
H        4.11111434      -0.00082404       1.49358023
H        2.65620789      -0.90125640       2.00152723
H        2.65178477       0.87468188       2.02094226
H        2.31266978      -2.01297392      -0.91686481
H        3.95298405      -1.64180222      -0.34226142
H        3.68249048       1.29186453      -2.81442755
H        2.63121789       2.01886389      -0.71477188
