17
Properties=species:S:1:pos:R:3 -1632.8897720641294=T 11.062621=T 11.78204=T -8.7279=T -6.8139=T -9.518=T 0.6306=T -0.3316=T 0.871=T 8.64157=T -0.2194=T 4.890255812=T 5.8096987922=T 0.155481843=T pbc="F F F"
C        0.81844021      -0.25478489      -0.20550513
N        2.21758810      -0.10306348       0.18040338
C        3.00498134      -1.32469894       0.26250845
C        2.87935748       1.09668624       0.02772605
N        4.15607078       1.30014559       0.06995543
C        2.04422612       2.36184524      -0.18077236
O        2.87483202       3.49375944      -0.23927948
H        0.25372494       0.65560760       0.02258166
H        0.37145510      -1.07362358       0.37479353
H        0.69691559      -0.48362788      -1.28047443
H        2.34378887      -2.15634781       0.53478128
H        3.77084548      -1.23553200       1.04654375
H        3.50381908      -1.57311999      -0.69229002
H        4.71938993       0.45417964       0.18068904
H        1.31567524       2.45989699       0.64795804
H        1.46177858       2.26157623      -1.11808485
H        3.78413116       3.10332162      -0.14275433
