17
Properties=species:S:1:pos:R:3 -1751.672782140071=T 11.153365=T 12.45881=T -8.9621=T -6.9434=T -10.263=T 0.8727=T -0.8012=T 0.396=T 9.49259=T 0.40998=T 3.7245642372=T 11.344595014=T 0.079860596=T pbc="F F F"
C        0.84337068      -0.02703802       0.18452155
C        2.34910230       0.05027195      -0.02926569
C        3.20685519       1.10412978       0.74462458
C        4.21687822      -0.00253894       1.19270221
C        5.59204862       0.00811941       0.52318183
C        3.22862134      -1.03663323       0.61677284
O        3.13473167      -2.24109130       0.70688353
H        0.43543409      -0.94234567      -0.26639405
H        0.33308038       0.83528579      -0.26802476
H        0.59945264      -0.04288346       1.25717390
H        2.57828233       0.08038294      -1.10961078
H        2.65898788       1.54675467       1.58804302
H        3.63535570       1.90971555       0.13405030
H        4.33000315      -0.10682463       2.28393309
H        5.50351287       0.11332502      -0.56867586
H        6.13247916      -0.92582702       0.73072005
H        6.19867378       0.84674715       0.89440423
