17
Properties=species:S:1:pos:R:3 -1777.992517275008=T 13.746997=T 14.91355=T -8.6099=T -6.5452=T -8.4=T 0.836=T -0.6376=T 0.745=T 7.87388=T -0.15393=T 3.8282289318=T 10.6499262532=T 0.486459192=T pbc="F F F"
C        2.84261717      -0.60592458       1.44353838
C        2.47576869       0.01564229       0.08956566
C        2.92096433       1.46137770      -0.04684784
C        2.03888203       2.47303801      -0.19715170
C        4.32729437       1.70097924      -0.00240014
C        5.53811386       1.84477290       0.03775103
C        6.97767939       2.04262919       0.08223626
H        2.52360920      -1.65687623       1.48826765
H        2.35691071      -0.06441977       2.26828362
H        3.92866677      -0.57157759       1.60972908
H        1.38725000      -0.03061247      -0.06741151
H        2.94405410      -0.57191925      -0.71796156
H        0.96644136       2.27520136      -0.23144639
H        2.37037436       3.50712037      -0.29030141
H        7.23265123       3.11279809       0.09026247
H        7.46858196       1.58723814      -0.79146268
H        7.41445046       1.58618259       0.98364908
