14
Properties=species:S:1:pos:R:3 -1462.3781861821558=T 9.547375=T 10.41364=T -9.1826=T -7.0742=T -10.793=T 0.9205=T 0.0588=T 2.706=T 10.12939=T -2.38099=T 8.4622552762=T 12.8046293528=T 0.139897724=T pbc="F F F"
C       -1.63333772       0.65927754       0.58480620
C       -1.04972582      -0.33223020      -0.36166759
C        0.06016819      -1.16351946       0.20243611
O        1.26473538      -1.12044537      -0.60058769
C        1.15913781      -0.24774768       0.55193434
C        0.74913055       1.16707940       0.18092074
N       -0.62290359       1.09453269      -0.39882114
H       -2.63863751       1.04740215       0.40988771
H       -1.33734822       0.58479202       1.63724661
H       -1.61341710      -0.69498511      -1.22451322
H       -0.13139427      -2.10734189       0.72248395
H        1.86712434      -0.45016749       1.36065120
H        0.76113647       1.83748203       1.05463304
H        1.42577151       1.58120137      -0.58229027
