17
Properties=species:S:1:pos:R:3 -1667.40712044311=T 13.006934=T 13.40018=T -8.9429=T -6.977=T -9.594=T 0.5679=T -1.1577=T 0.264=T 9.17171=T 0.41839=T 4.4891982978=T 5.7389895764=T 0.743200586=T pbc="F F F"
C        0.86403381      -0.25791517       0.04500193
C        2.39366699      -0.09356680       0.00202417
C        3.01040225      -0.92197456      -1.13927863
C        2.75111800       1.35169566      -0.16186869
N        3.44473046       1.97768552       0.72223272
N        3.65701723       3.33196185       0.34872426
C        4.35905194       3.95437703       1.22368984
H        0.42430647       0.31060990       0.87605665
H        0.59938201      -1.31719997       0.17535357
H        0.40116561       0.09146837      -0.89103138
H        2.82040435      -0.42664766       0.96131332
H        2.62569707      -0.59651244      -2.11832038
H        2.75824726      -1.98514714      -1.01591354
H        4.10500814      -0.82801266      -1.15425692
H        2.40538843       1.87822750      -1.06901395
H        4.58390963       5.00738043       1.03630280
H        4.73044035       3.46619014       2.13602423
