16
Properties=species:S:1:pos:R:3 -1465.4287003130414=T 11.43604=T 12.7738=T -9.4477=T -7.3371=T -10.235=T 0.6989=T -0.278=T 0.12=T 9.91688=T 0.21556=T 5.2903834312=T 11.3109452136=T 0.074366478=T pbc="F F F"
C        1.54579203       0.06019422       1.02829596
N        2.96262945       0.31821106       0.76089781
C        3.20988291       1.64183993       0.23948392
S        5.00469724       1.91547025       0.04924491
C        5.61420595       1.85315696       1.74048449
O        5.53988694       0.74181241      -0.66720543
O        5.18928600       3.27760072      -0.47574298
H        1.43013038      -0.97543434       1.37382886
H        0.88404353       0.21298244       0.15258899
H        1.19769588       0.72216394       1.83532694
H        3.33519590      -0.36900595       0.10028881
H        2.84190108       2.41363512       0.93241092
H        2.81497307       1.86390172      -0.77425893
H        5.26247666       2.74268497       2.27465459
H        6.70768748       1.85193023       1.66248231
H        5.24831548       0.92560633       2.19503884
