11
Properties=species:S:1:pos:R:3 -1184.2072348115723=T 8.454083=T 9.3233=T -10.263=T -8.0257=T -11.028=T 0.7601=T -0.312=T 1.201=T 10.69596=T -0.8429=T 5.26754521=T 10.5981249024=T 0.211690046=T pbc="F F F"
O        1.04721502      -0.07138617      -0.08370552
C        2.44158905      -0.03144538       0.02318498
C        3.20469706      -0.74243250      -1.03495471
C        3.23209803       0.78854623      -1.00965852
C        4.41455034       1.48536144      -0.60206199
N        5.37507655       2.04514788      -0.23992689
H        0.68216340       0.68676340       0.40749512
H        2.84978326      -0.04073926       1.03857105
H        2.62549891      -1.18352433      -1.84555194
H        4.11467480      -1.27004070      -0.75409644
H        2.62865359       1.28766940      -1.76939514
