15
Properties=species:S:1:pos:R:3 -1570.512056156886=T 11.269912=T 12.77959=T -9.7199=T -7.453=T -9.877=T 0.8411=T -0.1289=T 2.194=T 9.48113=T -1.81302=T 4.3706428846=T 10.5419840416=T 0.37671592=T pbc="F F F"
O        1.13422353      -0.28591333       0.16680360
C        2.52181900      -0.07335366       0.02457179
C        3.13718403      -0.56687450      -1.24991142
C        3.03441036       0.92391920      -0.98876513
C        4.28117202       1.74592117      -0.69086925
C        5.00910858       2.14637085      -1.89190451
C        5.59989332       2.47270591      -2.90093703
H        0.77422170       0.44355768       0.70221911
H        3.10465716      -0.19811424       0.94600677
H        2.45287414      -0.98993187      -1.98514927
H        4.12015501      -1.03757285      -1.20249013
H        2.26284634       1.44179147      -1.56298498
H        4.95727968       1.16492339      -0.03998664
H        4.00664941       2.64916569      -0.11833657
H        6.12425571       2.76318511      -3.78809634
