19
Properties=species:S:1:pos:R:3 -1875.3321080565654=T 12.178787=T 13.23583=T -9.6797=T -7.4988=T -9.647=T 1.2862=T -0.2451=T 1.193=T 9.10992=T -0.63391=T 6.6350363984=T 0.446518707=T pbc="F F F"
C        3.25231790      -1.21252891      -0.84847625
C        2.65794870      -0.21345355       0.14755520
C        3.13568965       1.23449134      -0.03836679
O        2.39828259       2.12801250       0.80526369
C        4.65931757       1.44268499       0.15521092
C        5.11981378       1.11258187       1.54527526
C        5.37816186       2.02229594       2.49584574
H        2.78642015      -2.20139968      -0.73514533
H        4.33575713      -1.34432724      -0.71013085
H        3.08635583      -0.88701894      -1.88736010
H        2.86895011      -0.53617651       1.18149098
H        1.56109881      -0.19737788       0.05108682
H        2.88874358       1.55273484      -1.06602204
H        2.76423867       2.02984708       1.70614796
H        4.87838724       2.49725265      -0.07038228
H        5.20060161       0.82729497      -0.58136519
H        5.21383600       0.05039517       1.79764616
H        5.30966925       3.09367471       2.28928243
H        5.68495957       1.72877665       3.50112367
