16
Properties=species:S:1:pos:R:3 -1578.9201769139581=T 10.621687=T 11.36865=T -9.1921=T -7.0003=T -8.969=T 0.901=T -0.1044=T 1.292=T 8.41776=T -0.63937=T 6.0992680952=T 0.389768385=T pbc="F F F"
C        0.88528963      -0.16880794       0.17357157
C        2.37174923       0.01729108       0.17395355
C        3.06915828       1.15667216      -0.00643138
C        2.47329484       2.51418485      -0.26648061
C        4.57799849       1.11457143       0.04080090
O        5.18966791       1.48306208      -1.21155267
H        0.57952988      -0.88141920      -0.60958025
H        0.33449139       0.76621385       0.01239957
H        0.54695098      -0.59768954       1.13060862
H        2.95350841      -0.89510456       0.35618902
H        1.39237839       2.48338286      -0.44853218
H        2.95916729       2.98123019      -1.13637273
H        2.65472975       3.18413460       0.59092084
H        4.91800358       0.11440990       0.36562535
H        4.96379315       1.85246290       0.76334292
H        4.85138880       0.85953534      -1.87976252
