15
Properties=species:S:1:pos:R:3 -1579.9710249107932=T 11.749997=T 12.21063=T -7.0873=T -5.1914=T -7.537=T 0.8389=T -0.0304=T 1.15=T 7.0133=T -0.54965=T 4.5420907254=T 5.8852682592=T 0.386823718=T pbc="F F F"
C        0.95336692      -0.02446830       0.01145854
C        2.44450001       0.04943708      -0.01282649
C        3.29638455       1.14504237      -0.06703184
C        4.64179761       0.66397772      -0.06937521
N        5.79888286       1.46785905      -0.19967527
C        4.58179584      -0.72039625      -0.01743112
N        3.23681166      -1.07408162       0.01067273
H        0.53166194       0.98828638      -0.00071296
H        0.57545885      -0.52876340       0.91578501
H        0.54936875      -0.56077963      -0.86270015
H        2.98175681       2.18458565      -0.11332154
H        5.71186460       2.34082945       0.32049082
H        6.63931675       0.98610409       0.11778298
H        5.36531850      -1.47043886      -0.01335277
H        2.89194435      -2.02529371       0.05272726
