14
Properties=species:S:1:pos:R:3 -1502.7601568670111=T 11.405199=T 11.16266=T -8.0886=T -6.2061=T -8.708=T 0.5368=T -1.1024=T -0.7=T 8.18391=T 1.39065=T 3.484502544=T 4.1068874668=T 0.391511028=T pbc="F F F"
O        0.97579811      -0.13427595       0.09604655
C        2.19463133       0.00626838      -0.04695775
C        2.88755664       1.26561484      -0.02541235
C        4.23884230       1.42568138      -0.15619911
N        4.62976817       2.73232749      -0.02907906
C        3.43029742       3.60020149      -0.10125059
C        2.26973723       2.62882734       0.22942753
H        2.85562744      -0.88406460      -0.21967555
H        4.98500269       0.64459475      -0.30309114
H        5.50732639       3.04722680      -0.43278581
H        3.32728693       4.01230996      -1.12008917
H        3.51401641       4.43598349       0.60582037
H        1.37794568       2.80990381      -0.38433974
H        1.95980325       2.71394082       1.28383582
