15
Properties=species:S:1:pos:R:3 -1554.3352365227074=T 10.08115=T 10.95511=T -7.71=T -5.6884=T -8.928=T 0.9883=T 0.0783=T 1.112=T 8.60032=T -0.62744=T 5.6466696008=T 11.7868902718=T 0.38827611=T pbc="F F F"
C        0.81562429      -0.00282725      -0.00877291
C        2.33451650      -0.00019186      -0.08549259
C        3.03372515       0.00257824       1.26476534
O        2.77597758      -1.17016769      -0.84939397
C        3.41030731      -0.66832336      -1.97601813
C        3.40793365       0.66750635      -1.97751903
O        2.77184414       1.16962257      -0.85201129
H        0.39467626      -0.00443355      -1.02194939
H        0.46381836       0.89068599       0.52355777
H        0.46704235      -0.89671920       0.52504275
H        4.12092917       0.00397297       1.11761028
H        2.75110744      -0.89072893       1.83715073
H        2.74849420       0.89657352       1.83477350
H        3.80980685      -1.38934645      -2.67938432
H        3.80486674       1.38835863      -2.68250874
