19
Properties=species:S:1:pos:R:3 -1829.8192654539787=T 11.745194=T 12.73907=T -8.3642=T -6.2842=T -9.876=T 0.9028=T -0.0478=T 3.029=T 9.33264=T -2.72938=T 7.94626274=T 11.3810716952=T 0.119491805=T pbc="F F F"
C        1.06626394       0.05480065      -0.15174298
C        2.57309593       0.03044674       0.04520449
N        3.03842664       1.11821765       0.92100738
C        4.39832580       0.71386991       1.35947520
C        4.51056260      -0.82828772       1.20559212
C        3.12991188      -1.27420407       0.68035688
N        3.21490618      -2.48122490      -0.14396785
H        0.74361310      -0.75181189      -0.82646598
H        0.73802992       1.00956924      -0.58515920
H        0.54537863      -0.08307928       0.81064665
H        3.06895585       0.15902079      -0.93962031
H        2.42357544       1.14266717       1.74111630
H        5.14265285       1.21900465       0.72225593
H        4.57328687       1.05593265       2.38883947
H        5.28420706      -1.09667707       0.46822168
H        4.77298904      -1.33765532       2.14256230
H        2.47655369      -1.51874204       1.53945081
H        3.76907880      -2.28837808      -0.98442374
H        2.28415577      -2.76014907      -0.46475914
