9
Properties=species:S:1:pos:R:3 -878.2343627027244=T 6.028808=T 6.18414=T -9.7205=T -7.5353=T -10.739=T 0.8077=T -0.1388=T 0.351=T 10.0207=T 0.16892=T 4.354140348=T 16.3506909458=T 0.294465169=T pbc="F F F"
C        0.99090357      -0.01162931       0.03736642
N        2.43431294       0.07427850       0.16310251
C        3.17783181       1.17909053      -0.13947423
O        4.39536934       1.26067874      -0.03245940
H        0.69171535      -0.79567594      -0.67445054
H        0.61432171       0.94935456      -0.33699366
H        0.51101163      -0.21159122       1.00716504
H        2.95577410      -0.73096131       0.50535985
H        2.53926954       2.01984545      -0.50431599
