15
Properties=species:S:1:pos:R:3 -1483.4926833095883=T 10.144364=T 10.60917=T -8.1386=T -6.1498=T -9.28=T 0.9051=T -0.1088=T 0.661=T 8.80096=T -0.11704=T 4.8266137982=T 5.744643338=T 0.141002022=T pbc="F F F"
C        1.71986825      -0.07967625      -0.02012910
C        0.78412295      -1.19695913       0.46623275
N       -0.36517422      -1.37090177      -0.43677391
N       -1.46928545      -0.54084977      -0.19928979
C       -1.31506788       0.70192569       0.07798936
O       -0.18672001       1.48582804       0.17258909
C        0.93358478       1.06366717      -0.64840452
H        2.41700123      -0.46544380      -0.78095522
H        2.32351291       0.28650869       0.82445877
H        1.32420131      -2.15456710       0.50564871
H        0.43216454      -0.97491092       1.49151626
H       -0.72457793      -2.32279837      -0.38514439
H       -2.21411631       1.28421988       0.29085222
H        1.55426294       1.96274026      -0.76216817
H        0.55108290       0.77518737      -1.63879205
