13
Properties=species:S:1:pos:R:3 -1388.7993531189131=T 10.138046=T 11.03936=T -9.7253=T -7.5616=T -10.167=T 0.6479=T -1.3135=T -0.237=T 10.2504=T 0.9195=T 3.6641334608=T 10.9660409588=T 0.623403442=T pbc="F F F"
C        0.97618041      -0.04744373      -0.10774981
C        2.50436128       0.01351908       0.00234339
O        2.85331500      -0.68545074       1.22172076
C        3.09807569      -0.83037063      -1.15951732
O        3.75118086      -0.41954516      -2.09069411
C        3.01109905       1.38146831       0.00179965
C        3.47048089       2.50400100       0.00953163
H        0.63664479       0.45343577      -1.02278129
H        0.53364492       0.44904038       0.76495064
H        0.65029199      -1.09681716      -0.12149927
H        3.77932546      -0.46003532       1.42877467
H        2.85838372      -1.91634970      -1.02070119
H        3.86996596       3.49788790       0.01629226
