17
Properties=species:S:1:pos:R:3 -1669.5230322814034=T 12.063459=T 12.93087=T -8.533=T -6.4017=T -9.276=T 0.8275=T -0.1624=T 1.3=T 8.80526=T -0.70825=T 6.4369563648=T 0.417040319=T pbc="F F F"
N        1.01080795      -0.09564785      -0.15708117
C        2.44560036      -0.12367120       0.01807118
C        3.25450943      -0.82397449      -1.07627084
N        2.63631439      -1.46490511      -2.21712574
C        3.27213463       0.67511629      -0.99786281
C        4.44814242       1.46670940      -0.55885021
C        5.70907359       1.02664182      -0.45315221
H        0.61304993       0.76068480       0.23549211
H        0.57470311      -0.87893011       0.33612932
H        2.86371855      -0.16113412       1.03314903
H        4.15598979      -1.33910576      -0.73815757
H        1.71014130      -1.04546479      -2.35315882
H        2.46219008      -2.44975257      -1.99404885
H        2.63632431       1.16936986      -1.74119106
H        4.23367876       2.50836526      -0.29009305
H        5.98872818       0.00628354      -0.72400339
H        6.50633322       1.68095502      -0.09867591
