16
Properties=species:S:1:pos:R:3 -1548.3502243785574=T 9.991341=T 11.02886=T -9.5384=T -7.3985=T -11.081=T 0.8054=T -0.2987=T 2.57=T 10.44446=T -2.2486=T 8.5400688898=T 12.2287267814=T 0.112021785=T pbc="F F F"
O        1.38844488      -0.85711154       0.58236389
C        1.49639657       0.50197055       0.10110669
C        2.95801821       0.89631412       0.10354444
C        3.66208655       0.79442632       1.44651115
O        3.89119491      -0.55055107       1.86623582
C        3.76808809       0.73604984      -1.13311121
N        3.22083371       2.06441006      -0.77088786
H        0.44941456      -1.05258979       0.73599166
H        0.93713359       1.18912141       0.76272699
H        1.09123756       0.59550597      -0.92025300
H        3.07597698       1.35221112       2.20616210
H        4.65312998       1.27319733       1.37844486
H        3.05227839      -1.02611719       1.69870923
H        3.31683446       0.28590653      -2.02050595
H        4.83778116       0.55037908      -1.00953588
H        3.96196039       2.63701726      -0.35144294
