17
Properties=species:S:1:pos:R:3 -1682.3034073718215=T 11.018259=T 11.8935=T -9.8733=T -7.622=T -9.768=T 0.9138=T -0.572=T 1.031=T 9.15163=T -0.39965=T 6.5600124698=T 0.391407352=T pbc="F F F"
C        0.87771987       0.02664643      -0.08577734
C        2.39538435       0.14621098      -0.06830345
O        2.97921246      -0.61070495      -1.17366078
C        2.96434322       1.55574669      -0.05379894
C        2.20880066       2.65960003      -0.14809112
C        4.46933695       1.64473953       0.10042880
O        5.19995896       1.10590867      -1.00749953
H        0.43313251       0.47518753       0.81344067
H        0.59975886      -1.03472103      -0.11826242
H        0.44397505       0.52267105      -0.96750090
H        2.78277043      -0.38099054       0.82145440
H        2.64743200      -0.19950769      -1.99481832
H        1.12103001       2.62341795      -0.22554169
H        2.66640770       3.65101323      -0.13945021
H        4.75896556       1.12943599       1.04067279
H        4.77409071       2.69710289       0.19392500
H        4.76922070       0.24949325      -1.21175696
