12
Properties=species:S:1:pos:R:3 -1357.472314235561=T 9.680572=T 10.61395=T -9.9758=T -7.9651=T -10.833=T 0.2457=T -1.5969=T -0.22=T 10.09663=T 0.98696=T 3.7267463908=T 11.2945294672=T 0.172109904=T pbc="F F F"
O        1.10182042      -0.02758995       0.38868706
C        2.28059890      -0.00669371       0.16361852
C        3.32323636       1.08594239      -0.08155460
C        4.30543529      -0.00447358      -0.59710787
C        3.35506346      -1.13719188      -0.07797009
C        3.01793093      -2.23484715      -0.95539173
N        2.73600421      -3.09367260      -1.69471425
H        3.63146485       1.56155878       0.86181598
H        3.01333582       1.87236526      -0.78225336
H        4.38676563      -0.01740541      -1.68972509
H        5.30721552      -0.00874979      -0.15541894
H        3.67437861      -1.52452234       0.90360437
