18
Properties=species:S:1:pos:R:3 -1750.9619978718592=T 11.153444=T 12.33273=T -9.1975=T -7.0348=T -10.369=T 0.8855=T -0.0945=T 2.754=T 9.77517=T -2.37883=T 8.0727780544=T 12.1524753914=T 0.129163349=T pbc="F F F"
C        2.86837578      -1.39409692      -0.37773438
C        2.32723118      -0.11118869       0.23634303
O        1.90031348      -0.44520655       1.57434286
C        3.34346634       1.03058048       0.27020403
N        4.58639654       0.82619254       0.98894260
C        3.42510788       1.93874203      -0.93016422
C        2.77922391       2.43758429       0.34577483
H        3.19562136      -1.21713844      -1.41159323
H        2.09100707      -2.16935885      -0.38274464
H        3.72050539      -1.77385840       0.20438371
H        1.45349947       0.22661443      -0.35708905
H        1.54932410       0.37217045       1.97186514
H        4.37502419       0.44457623       1.91629034
H        5.15529739       0.12258644       0.50946161
H        2.77847144       1.72729444      -1.78320254
H        4.41095408       2.33233828      -1.17721968
H        3.34142437       3.15505412       0.94242801
H        1.69479602       2.56634412       0.34749160
