13
Properties=species:S:1:pos:R:3 -1338.7662409234797=T 10.643465=T 10.38302=T -8.22=T -6.3054=T -8.85=T 0.9705=T -0.5593=T 0.303=T 8.19891=T 0.25565=T 5.0163123782=T 0.220537863=T pbc="F F F"
C        0.85139491      -0.04671021       0.20511894
C        2.18235520      -0.04422309       0.01808660
C        3.03826730       1.18431802      -0.13002235
O        4.25349647       1.06626393       0.63634976
N        5.04478360      -0.06604045       0.27515786
C        4.34773975      -1.10093630      -0.06998740
N        2.97070704      -1.18593967      -0.12500648
H        0.31019162       0.89448849       0.27409675
H        0.27770400      -0.97107970       0.28048520
H        2.53163338       2.07695735       0.25484658
H        3.29852577       1.33758335      -1.19483612
H        4.91024282      -1.99984757      -0.32494707
H        2.53501814      -2.09730415      -0.22574229
