18
Properties=species:S:1:pos:R:3 -1744.9037168955385=T 11.323042=T 12.55048=T -8.7265=T -6.5923=T -10.107=T 0.8924=T -0.0557=T 2.877=T 9.35103=T -2.64545=T 7.9342484966=T 10.0369890636=T 0.081813485=T pbc="F F F"
C        2.18725579      -0.51438170      -1.40355428
N        2.29995094       0.07508126      -0.06950607
C        3.09121927       1.29038042      -0.04679219
C        2.43223825       2.62451100      -0.49870909
C        3.20668041       3.33941821       0.64338325
C        3.33674843       1.95546774       1.32791699
O        4.47788938       1.61571041       2.09965318
H        1.63674535      -1.46329766      -1.34218044
H        3.16358232      -0.70643713      -1.89795570
H        1.61148125       0.16059873      -2.05495851
H        2.72793226      -0.60216042       0.56791844
H        4.07218653       1.18408838      -0.57023082
H        1.35124818       2.59622729      -0.30160879
H        2.61066842       2.96400839      -1.52636172
H        4.18779742       3.70081522       0.29678282
H        2.70762088       4.14417662       1.19778495
H        2.46922951       1.76443638       1.97873830
H        5.26566539       1.81557686       1.56245968
