13
Properties=species:S:1:pos:R:3 -1355.8228879045998=T 11.878729=T 12.55432=T -9.588=T -7.8219=T -9.772=T 0.308=T -1.3505=T -0.42=T 9.13931=T 1.05367=T 4.2559558346=T 10.385811276=T 0.35358238=T pbc="F F F"
C        0.90383832      -0.09416650       0.10801564
C        2.42358262       0.01523909      -0.09412353
C        2.89708546       1.43669797      -0.09666822
N        2.85632266       2.24726968       0.94391328
C        3.34260443       3.47160299       0.57957201
N        3.76190006       3.69588615      -0.65692781
S        3.54699145       2.25569260      -1.49505847
H        0.59858324      -1.14878426       0.13650496
H        0.36117873       0.39924924      -0.71008206
H        0.60672817       0.38084593       1.05176129
H        2.72173153      -0.47470399      -1.03268591
H        2.94486145      -0.50874295       0.72256883
H        3.39142189       4.27800406       1.31297999
