20
Properties=species:S:1:pos:R:3 -1886.5855829306515=T 12.014788=T 13.32714=T -9.2051=T -6.87=T -10.524=T 0.9657=T 0.032=T 3.146=T 10.6674=T -2.86613=T 8.7320736094=T 11.8685102556=T 0.139898353=T pbc="F F F"
C        1.02902258       0.13519324       0.05064706
C        2.50468872      -0.11661853      -0.22969053
C        2.71200576      -1.09727235      -1.38586959
O        3.09358973       1.16852525      -0.49976465
C        4.52154012       1.18338364      -0.45481156
C        4.97800519       2.63180880      -0.45208415
N        4.55035276       3.29880152       0.78418401
H        0.90881392       0.83248289       0.89064365
H        0.51849340      -0.80507395       0.30101295
H        0.54125782       0.56967155      -0.83439278
H        2.98330441      -0.52896617       0.68284980
H        2.26624945      -0.69653482      -2.30867569
H        2.23251207      -2.06049398      -1.15830954
H        3.77708002      -1.29396700      -1.57089706
H        4.95428215       0.66023657      -1.32871530
H        4.87395686       0.68199900       0.46820422
H        4.60983908       3.11119171      -1.38202149
H        6.07918384       2.63926800      -0.49469560
H        3.52757368       3.28016353       0.82218582
H        4.82138844       4.28394110       0.76123043
