13
Properties=species:S:1:pos:R:3 -1403.018592345396=T 12.411964=T 12.91871=T -8.7004=T -6.8242=T -8.402=T 0.9766=T -0.5126=T 0.232=T 7.82892=T 0.31857=T 4.4632604266=T 6.3247986292=T 0.377739782=T pbc="F F F"
O        2.64013663      -0.67379120      -1.25443666
C        2.23871267      -0.04002764      -0.02660559
C        2.77665772       1.36074827      -0.00073278
C        1.99963764       2.48278771       0.18445161
S        2.94740016       3.93115870       0.20573470
C        4.40901841       3.03337918      -0.04835785
C        4.16328659       1.68648741      -0.13643865
H        2.39822554      -1.61352096      -1.19095761
H        2.63701189      -0.60173628       0.83997695
H        1.13802556      -0.01452054       0.06782131
H        0.92129214       2.54025750       0.30710098
H        5.35762428       3.55789827      -0.11784638
H        4.93909077       0.94187958      -0.30886004
