18
Properties=species:S:1:pos:R:3 -1747.3255123806925=T 11.370496=T 12.74895=T -9.1356=T -6.8222=T -10.521=T 0.8532=T -0.1094=T 2.965=T 9.93841=T -2.61982=T 8.5509300634=T 10.777421057=T 0.127357868=T pbc="F F F"
C        1.02170523      -0.02488463      -0.01726652
C        2.53174136       0.04193454       0.01716178
O        3.07724976       0.04953451       1.33015756
C        3.34576903      -0.62367644      -1.07227218
C        3.26266420       0.89988526      -0.97944069
C        4.48791282       1.70218479      -0.60825273
N        5.28177657       1.98509269      -1.81896561
H        0.64664414       0.01687605      -1.04923180
H        0.58922153       0.81495153       0.54603827
H        0.65937350      -0.96376044       0.43268745
H        2.89240487      -0.82260512       1.72289619
H        2.82888305      -1.13739474      -1.88449277
H        4.28843098      -1.07556926      -0.75644244
H        2.63218778       1.38493331      -1.72995247
H        5.03825611       1.17156732       0.19020499
H        4.17031984       2.66993094      -0.18561305
H        5.62614417       1.10257176      -2.20821110
H        6.11149507       2.52738792      -1.56642489
