20
Properties=species:S:1:pos:R:3 -1937.4714103619929=T 12.331378=T 13.9037=T -9.1449=T -7.033=T -10.69=T 0.9033=T -0.0036=T 2.867=T 10.09596=T -2.53402=T 8.4808779734=T 11.3685119134=T 0.204018527=T pbc="F F F"
C        1.04321655       0.09353317      -0.40682839
C        2.49944944      -0.32098870      -0.62600501
C        3.45626088       0.34393893       0.37072146
C        4.90293014      -0.11289341       0.25055447
C        5.60553557       0.20692413      -1.05488548
C        5.73227398      -0.19934649       1.48542319
N        5.16359004      -1.43226894       0.88381776
H        0.37107167      -0.40267668      -1.12183852
H        0.91471212       1.18090643      -0.52705316
H        0.70491231      -0.16956206       0.60754593
H        2.79625701      -0.07138688      -1.65841913
H        2.59676142      -1.41464886      -0.52574735
H        3.11281934       0.12157324       1.39411134
H        3.41562778       1.44214620       0.25366576
H        6.66469758      -0.08702082      -1.01511591
H        5.56538619       1.28655738      -1.26928922
H        5.13980628      -0.31886892      -1.90210359
H        5.30130443       0.07587975       2.45172243
H        6.80693826      -0.01821021       1.39413154
H        5.90143903      -1.91741728       0.36134187
