13
Properties=species:S:1:pos:R:3 -1355.3710337748523=T 12.032046=T 12.67256=T -9.1072=T -7.2982=T -9.901=T 0.0541=T -1.5841=T -0.909=T 9.50907=T 1.28742=T 4.3348481264=T 9.2492192154=T 0.219380098=T pbc="F F F"
C        1.08059331       0.12076121       0.00112607
C        2.57989150       0.04852175      -0.00218900
N        3.28888960       1.17988148      -0.00999607
S        4.88983263       0.74612807      -0.00916467
N        4.70336976      -0.90210410       0.00184619
C        3.39033492      -1.14442538       0.00475062
C        2.90476276      -2.56480503       0.01213794
H        0.62334643      -0.87451743      -0.02685974
H        0.72305354       0.68975540      -0.86791564
H        0.72348077       0.63888825       0.90206484
H        1.81122298      -2.62267226       0.04782844
H        3.30763889      -3.10255861       0.88124346
H        3.24852292      -3.09252334      -0.88843244
