17
Properties=species:S:1:pos:R:3 -1605.7889505020703=T 11.862499=T 12.56873=T -8.5478=T -6.5164=T -9.172=T 1.3684=T -0.1128=T 0.897=T 8.73893=T -0.3157=T 4.9703755652=T 5.6878329528=T 0.160063476=T pbc="F F F"
C        1.69531169       1.74112743      -1.98049105
O        3.06544861       1.81670535      -1.61711358
C        3.24191636       1.74553616      -0.20319288
C        4.73018302       1.87016296       0.11903661
C        5.30852292       3.20513718      -0.24022169
N        5.81991935       3.95850346       0.66749933
N        6.25369814       5.21378833       0.29841442
H        1.64557558       1.79364812      -3.07556890
H        1.11412576       2.57950051      -1.55126595
H        1.23807957       0.79080119      -1.64378110
H        2.85210589       0.77936842       0.17737808
H        2.67319729       2.55794395       0.29253420
H        5.26166968       1.06959480      -0.42446673
H        4.87862205       1.70400212       1.19582215
H        5.26289147       3.51953426      -1.29847314
H        6.52055074       5.30625495      -0.69040424
H        7.00295187       5.51645081       0.91805448
