13
Properties=species:S:1:pos:R:3 -1394.4502235483722=T 10.161069=T 11.05078=T -9.5287=T -7.4333=T -10.15=T 0.7075=T -1.1119=T 0.008=T 9.67883=T 0.67517=T 3.7297096562=T 10.8125338922=T 0.294613238=T pbc="F F F"
C        2.23973000      -0.82775764       1.39673170
C        2.47210025      -0.12996562       0.08457288
O        2.11425641      -0.55997304      -0.99548103
C        3.23960165       1.22957864       0.14587039
O        2.87314381       1.91280772       1.35362725
C        4.67265717       0.96489800       0.06630671
C        5.86771774       0.75235972       0.02922263
H        1.55142864      -0.22937421       2.01066692
H        3.17910041      -0.89538822       1.96393543
H        1.82009473      -1.82242215       1.21480099
H        2.91985583       1.79613990      -0.74746979
H        3.56184721       2.57544255       1.53649862
H        6.92159616       0.56491435      -0.01316269
