16
Properties=species:S:1:pos:R:3 -1576.3847553366058=T 10.389194=T 11.18117=T -9.6244=T -7.4151=T -9.455=T 1.1419=T -0.1565=T 1.234=T 8.84345=T -0.6128=T 6.4676305012=T 0.397758514=T pbc="F F F"
C        0.99621902       0.00667034       0.13578790
C        2.49490608       0.27745657       0.03078853
C        2.91967346       1.72679560       0.02963626
C        2.07205394       2.76817452       0.03191179
C        4.41270404       1.96557887       0.03936770
O        5.04760758       1.47134582       1.23408536
H        0.80031075      -1.07455854       0.13476137
H        0.44351471       0.44471296      -0.70850138
H        0.57658475       0.42118113       1.06450791
H        2.89345695      -0.18738915      -0.89042968
H        3.03106074      -0.22900370       0.85154031
H        0.98865942       2.64067633       0.03214594
H        2.44709008       3.79407005       0.02383636
H        4.62406910       3.04013767      -0.10488973
H        4.89652513       1.41307903      -0.78229617
H        4.63739426       1.93963250       1.98378753
