13
Properties=species:S:1:pos:R:3 -1341.2761800809353=T 11.188204=T 10.54788=T -7.6681=T -5.736=T -8.418=T 0.5518=T -1.0728=T -0.389=T 7.9455=T 0.92412=T 4.282290461=T 0.387597885=T pbc="F F F"
N        1.01878634      -0.11051895      -0.38336151
C        2.34190532       0.02247823       0.02070854
C        3.06154328       1.17239418       0.06902048
C        4.52706597       1.32408977       0.40184251
O        4.75381563       2.77295476       0.35580383
N        3.56695638       3.42323087      -0.02188476
C        2.63595160       2.53061640      -0.18146799
H        0.52300262      -0.91045938      -0.00145549
H        0.45149619       0.73337298      -0.37618171
H        2.82840390      -0.92864983       0.24821777
H        5.20189048       0.85864249      -0.33635934
H        4.80138822       0.97593486       1.41094685
H        1.64769407       2.87864362      -0.48052919
