20
Properties=species:S:1:pos:R:3 -1936.1095309250709=T 12.485419=T 13.90617=T -8.4701=T -6.4706=T -9.787=T 0.9355=T 0.027=T 3.218=T 9.01543=T -2.85569=T 7.7649704108=T 11.0819678688=T 0.399697998=T pbc="F F F"
C        1.38528602       2.05938999      -0.43025371
C        2.70142187       1.77127875       0.28450095
N        3.83975754       2.00738848      -0.61166487
C        5.14403731       1.69612506      -0.05451907
C        5.60535696       2.46697694       1.17342907
C        5.56104598       0.24791790      -0.19134400
C        6.18639801       1.30586886      -1.07797970
H        0.53021263       1.85721169       0.23025307
H        1.28807958       1.43982685      -1.33282831
H        1.32365595       3.11557495      -0.73660227
H        2.73902885       0.71174139       0.58751162
H        2.74581496       2.36770176       1.22005030
H        3.82987534       2.98339516      -0.92525429
H        6.60867344       2.14740286       1.48929870
H        4.92622965       2.31530599       2.02620464
H        5.64924379       3.54797799       0.96219435
H        4.84611797      -0.43003055      -0.65758203
H        6.17052495      -0.18741261       0.60163731
H        7.22191435       1.59214655      -0.88862546
H        5.87649485       1.32232198      -2.12270627
