9
Properties=species:S:1:pos:R:3 -1036.0819609507032=T 9.541505=T 9.66623=T -10.2806=T -8.2224=T -10.118=T -0.3574=T -2.1553=T -1.374=T 9.57404=T 1.75672=T 3.918763509=T 6.7275299544=T 0.368862761=T pbc="F F F"
C        0.96003163       0.02029759      -0.00052547
C        2.17334870       0.05348668       0.00007396
C        3.58645810       0.02968807       0.00063043
N        4.33486281       1.12797665       0.00298349
O        5.63340803       0.68125707       0.00262446
N        5.70221498      -0.70584082       0.00001438
C        4.45641281      -1.10769982      -0.00154794
H       -0.11092671       0.00483114      -0.00102717
H        4.20222965      -2.16294656      -0.00377614
