18
Properties=species:S:1:pos:R:3 -1747.340826994046=T 11.284944=T 12.74875=T -9.3979=T -7.0843=T -10.657=T 0.8851=T -0.0391=T 2.635=T 10.00993=T -2.33027=T 8.5136598718=T 10.6269516474=T 0.278844621=T pbc="F F F"
C        0.85371713       0.01736268      -0.21414547
C        2.33288548       0.17846356       0.07057468
C        2.71973123      -0.00678846       1.52241964
O        3.19889205      -0.47675182      -0.89850903
C        3.14683602       0.97521684      -0.87579410
C        4.42851709       1.69941938      -0.54885100
N        5.27581232       1.73911963      -1.75174415
H        0.64889978       0.12485456      -1.28690225
H        0.26672486       0.76984282       0.33397028
H        0.50970131      -0.97768183       0.10646404
H        3.80437846       0.04197734       1.66877723
H        2.37287825      -0.98954639       1.87634338
H        2.24341287       0.76073916       2.15109410
H        2.62449623       1.40027535      -1.74475599
H        4.90884535       1.23197808       0.32994016
H        4.17669387       2.73861111      -0.27519771
H        5.55072727       0.78338650      -1.99559789
H        6.14069042       2.24598148      -1.55267592
