18
Properties=species:S:1:pos:R:3 -1726.7683419420925=T 12.401277=T 13.42337=T -8.9502=T -6.9612=T -10.332=T 1.3228=T -0.2103=T 0.614=T 9.81301=T 0.01928=T 5.4524951262=T 6.43673319=T 0.293742818=T pbc="F F F"
C        2.36114147       1.06177176      -1.39011005
C        3.26092745       1.35862901      -0.20694394
O        4.55830585       1.70410728      -0.73329517
N        5.42491089       1.99145868       0.34286070
C        6.59973272       2.29697026      -0.07426201
C        7.67939473       2.62918855       0.90710214
C        8.86404149       1.65394857       0.83275592
H        1.35628611       0.79686940      -1.03367460
H        2.75073679       0.22111063      -1.98074449
H        2.27411635       1.93749817      -2.04814633
H        3.36154177       0.48252614       0.45507341
H        2.87780480       2.20156809       0.39192717
H        6.82802556       2.30432714      -1.15100975
H        7.24396915       2.63554162       1.91671749
H        8.03963512       3.65206121       0.70014217
H        8.54862515       0.63440965       1.09524124
H        9.65935831       1.95626689       1.52812097
H        9.29624631       1.62298694      -0.17841487
