15
Properties=species:S:1:pos:R:3 -1461.8239416540268=T 11.016032=T 11.67876=T -8.8657=T -6.8219=T -10.107=T 1.4266=T -0.2743=T 0.442=T 9.66442=T 0.17063=T 5.449432672=T 6.2243575706=T 0.19549545=T pbc="F F F"
N        1.08610964      -0.04025127      -0.01178207
C        2.52884009      -0.04729638      -0.01029444
C        3.21339276      -0.73201713      -1.15386988
C        3.23079268       0.78162269      -1.09837055
C        4.45969577       1.52728352      -0.77568527
N        5.51994896       0.92297031      -0.37188073
O        6.54236285       1.85838537      -0.05479117
H        0.72654504       0.66456972       0.63601117
H        0.72636330      -0.94619677       0.29966458
H        3.07146800      -0.06237884       0.94417307
H        2.57177600      -1.17673723      -1.91468270
H        4.15743017      -1.23808526      -0.95615227
H        2.53759091       1.29497301      -1.76603423
H        4.44546677       2.62335616      -0.85962852
H        7.27960706       1.27003211       0.18803300
