14
Properties=species:S:1:pos:R:3 -1470.3714882040215=T 11.040277=T 11.78476=T -9.4683=T -7.3592=T -9.262=T 1.18=T -0.1525=T 1.236=T 8.65185=T -0.62718=T 4.3511522854=T 10.6063575728=T 0.839314322=T pbc="F F F"
C        1.05210806       0.07332593       0.26993438
C        2.50634412      -0.20714849       0.01698629
C        2.98920637      -1.43761388      -0.20174312
C        3.42984116       1.00438018      -0.00447340
C        3.43426330       1.76228502       1.24520838
C        3.43102123       2.38495584       2.28739124
H        0.91673479       0.57953557       1.23838238
H        0.45876812      -0.84957950       0.26872218
H        0.64437191       0.75080141      -0.49870783
H        2.33241549      -2.30962600      -0.20898799
H        4.05201310      -1.61357545      -0.37849242
H        3.11613586       1.68081148      -0.82127293
H        4.45689377       0.68381353      -0.23999641
H        3.43324272       2.93509433       3.20607925
