17
Properties=species:S:1:pos:R:3 -1682.5607791759405=T 11.303239=T 12.15371=T -9.5468=T -7.4191=T -9.256=T 0.9953=T -0.3918=T 1.084=T 8.69647=T -0.42492=T 6.159562487=T 0.365325348=T pbc="F F F"
C        0.90436907      -0.43342295       0.13515240
C        2.35393326      -0.09724672      -0.02575552
C        2.93293151       1.11932097      -0.05740747
C        2.20214790       2.43687921       0.06975548
O        2.27045428       3.23623625      -1.12071398
C        4.42643616       1.23327773      -0.23285210
O        4.79103559       1.93111875      -1.45467477
H        0.73945550      -1.01417599       1.05710005
H        0.56606722      -1.07194166      -0.69627712
H        0.25626749       0.45037505       0.16822651
H        3.02043673      -0.96544038      -0.11695044
H        2.63065076       2.99249520       0.92994718
H        1.13465494       2.28999728       0.28005782
H        3.20132864       3.18504629      -1.42250918
H        4.90218114       0.23787600      -0.20150226
H        4.86852988       1.84717643       0.56822977
H        4.47017993       1.38233850      -2.19456637
