13
Properties=species:S:1:pos:R:3 -1352.466962230376=T 9.92872=T 10.24756=T -9.1733=T -7.1503=T -9.365=T 0.4449=T -1.2794=T 0.159=T 8.96004=T 0.46269=T 4.3980685878=T 9.0818877098=T 0.25813515=T pbc="F F F"
C        1.06235521      -0.01305893      -0.00262684
C        2.55111985       0.03738819      -0.05491991
N        3.19814562       1.16227830      -0.00207049
N        4.54478001       1.12509582      -0.41160208
C        5.18634386       0.02111166      -0.25451170
C        4.49172664      -1.18853656       0.28945910
O        3.13654009      -1.18666604      -0.23336802
H        0.67336466      -0.41748799      -0.94923000
H        0.67200659       0.99887098       0.14150086
H        0.71780382      -0.67466041       0.80375983
H        6.22361655      -0.01988076      -0.60020356
H        4.94741278      -2.12757866      -0.04481117
H        4.44668432      -1.17669561       1.39515398
