14
Properties=species:S:1:pos:R:3 -1508.4263158930419=T 10.385858=T 11.18131=T -9.0085=T -6.9162=T -8.514=T 1.2001=T -0.2815=T 0.244=T 8.10981=T 0.39279=T 4.3528880894=T 9.5012579562=T 0.322109031=T pbc="F F F"
C        0.94517227      -0.16908082      -0.12800566
C        2.44240945       0.06645105       0.12926557
C        2.84490862       1.49721757       0.07036662
C        3.32719534       2.40589887       0.96768512
N        3.51986910       3.63789056       0.34545242
C        3.15186918       3.42998786      -0.88289823
O        2.72493229       2.15521571      -1.14412136
H        0.70888041      -1.24070361      -0.07283399
H        0.65570278       0.19247034      -1.12403930
H        0.33164544       0.35785055       0.61606363
H        3.03775386      -0.50817663      -0.60006958
H        2.72080066      -0.31024867       1.12470211
H        3.55176900       2.25722129       2.01964699
H        3.13940161       4.12536591      -1.71633434
