16
Properties=species:S:1:pos:R:3 -1599.4802074717702=T 11.5711=T 12.57787=T -9.6128=T -7.3055=T -9.675=T 1.3397=T -0.3252=T 0.993=T 9.18524=T -0.43604=T 6.5588222042=T 0.533996998=T pbc="F F F"
N        1.34352895      -0.37017156       0.88600557
C        2.05023295       0.26029820      -0.23611313
C        3.18119503       1.11449554       0.29394952
O        3.79987745       2.01963123      -0.63203965
C        3.02862267       2.57947975       0.47064871
C        3.78373811       3.32525088       1.49341884
C        3.33596980       4.44515935       2.07646352
H        0.69452652      -1.07924188       0.54092213
H        0.78103787       0.32389176       1.38421548
H        1.42392062       0.88146197      -0.90670651
H        2.48649616      -0.53984428      -0.85588945
H        3.87683481       0.59180223       0.96387066
H        2.07471326       3.02539679       0.15724807
H        4.75807643       2.90740629       1.76554350
H        2.37191101       4.88194261       1.80440015
H        3.91405836       4.95882112       2.84458260
