21
Properties=species:S:1:pos:R:3 -1951.0216016834815=T 12.686742=T 14.04795=T -8.5662=T -6.3847=T -10.002=T 0.9251=T 0.0067=T 3.117=T 9.34341=T -2.80289=T 8.13844104=T 11.081620708=T 0.196841944=T pbc="F F F"
C        0.97139216       1.76146039       1.10310771
N        2.42936966       1.84929055       1.11707968
C        3.03279172       1.33794671      -0.11496060
C        4.56504573       1.42734447      -0.10773165
C        5.16169727       0.65232612      -1.28647455
C        5.04026418       2.88980892      -0.09456872
N        6.49115925       2.97394770       0.16106597
H        0.56902898       2.09573690       2.06988081
H        0.57819878       0.74301333       0.89353069
H        0.57371408       2.43432730       0.32702582
H        2.78793748       1.30377913       1.90591861
H        2.64012767       1.94213633      -0.95408113
H        2.73341211       0.28685898      -0.32786011
H        4.92147024       0.95497641       0.83037188
H        4.74501266       1.01745435      -2.23963688
H        4.94368258      -0.42344270      -1.21558747
H        6.25005851       0.79091087      -1.31855602
H        4.42152269       3.45305852       0.62745495
H        4.85250494       3.32424244      -1.09232007
H        6.67372364       2.76356257       1.14659510
H        6.80984564       3.93499071       0.01996598
