17
Properties=species:S:1:pos:R:3 -1599.8565320377695=T 11.771971=T 13.34071=T -10.0694=T -8.1483=T -10.225=T 0.6761=T -0.3306=T 0.134=T 9.87784=T 0.22294=T 5.3101839954=T 10.5059785072=T 0.331909688=T pbc="F F F"
C        1.04627925      -0.07512016       0.04304903
C        2.56636499       0.03764104       0.03258616
S        3.06332557       1.78712487      -0.00425143
O        2.63046626       2.35812878      -1.29405777
O        2.64432626       2.40786366       1.26702989
C        4.87976816       1.69048029      -0.01215806
C        5.47879799       3.09182050      -0.03974816
H        0.75566144      -1.13370710       0.06574349
H        0.61320982       0.38351377      -0.85507303
H        0.62284659       0.41907715       0.92678452
H        3.01162210      -0.42399041      -0.86012155
H        3.02127989      -0.38866164       0.93790249
H        5.14925961       1.10519201      -0.90272606
H        5.15886677       1.13660809       0.89538440
H        5.16149625       3.63590924      -0.93853894
H        6.57466364       3.02390024      -0.04493664
H        5.17173540       3.66651967       0.84340164
