11
Properties=species:S:1:pos:R:3 -1252.8267231923721=T 9.973956=T 9.66677=T -8.8707=T -7.0099=T -9.529=T -0.8763=T -2.6249=T -1.535=T 9.45246=T 2.05257=T 3.0013415006=T 6.0401143746=T 0.297504604=T pbc="F F F"
N        1.10677858      -0.12599570       0.29820026
C        2.34378462      -0.03083671       0.00466673
N        3.20071674      -1.11298637      -0.19736573
C        4.46640156      -0.65163909      -0.50570210
C        4.54842925       0.71385401      -0.52616635
C        3.22749540       1.22989374      -0.20810349
O        2.79296175       2.37292021      -0.10360514
H        0.73234287       0.83286926       0.38566204
H        2.91650179      -2.08497356      -0.14061509
H        5.25941886      -1.37209370      -0.69727121
H        5.43498858       1.30087790      -0.73994992
