12
Properties=species:S:1:pos:R:3 -1277.7993853057344=T 12.273377=T 12.04357=T -8.0804=T -6.4199=T -9.062=T 0.4286=T -1.1292=T -0.698=T 8.34395=T 1.4036=T 3.845115825=T 10.6729380548=T 0.303950601=T pbc="F F F"
C        0.85373036      -0.12515862      -0.05451202
N        2.29262940       0.00321524       0.10519953
S        3.08736325       1.51285903      -0.20663538
C        4.79193321       0.66428715      -0.14816119
O        5.82432902       1.28841854      -0.28884522
C        4.50187462      -0.72038710       0.09465950
C        3.16828127      -1.02542396       0.19822234
H        0.33874109       0.63729920       0.54466053
H        0.55407097      -1.11691254       0.30803859
H        0.55345838      -0.02006406      -1.10880784
H        5.30465563      -1.44553609       0.19367876
H        2.75547281      -2.02157679       0.35813241
