18
Properties=species:S:1:pos:R:3 -1736.03145125908=T 11.670225=T 12.6849=T -9.1746=T -7.142=T -10.212=T 1.3114=T -0.0582=T 0.733=T 9.56813=T -0.02765=T 5.5379214802=T 6.4479415244=T 0.197455702=T pbc="F F F"
C        1.36060457       0.26869663       1.41801568
C        1.94658511       0.49010524       0.01478748
C        3.07517171       1.49077925      -0.00960400
C        2.77770754       2.95732311       0.17710709
C        2.63389189       3.69142236      -1.16868905
N        4.24826440       0.99736122      -0.21767577
O        5.25514569       2.01213514      -0.22741694
H        0.52614668      -0.44569067       1.37856297
H        0.97748855       1.20192393       1.85607142
H        2.12426420      -0.13507836       2.09762297
H        1.15059917       0.84422894      -0.66378041
H        2.32028228      -0.46141528      -0.38966901
H        3.58995749       3.41732753       0.75835832
H        1.84909934       3.06455838       0.75802340
H        3.56790998       3.63187870      -1.74243839
H        2.39622308       4.75216820      -1.00532652
H        1.82844173       3.25644923      -1.77842409
H        6.05566655       1.47754645      -0.36653517
