18
Properties=species:S:1:pos:R:3 -1808.623646605379=T 12.190203=T 13.14901=T -8.6796=T -6.596=T -9.529=T 1.0202=T -0.0614=T 1.378=T 9.0035=T -0.77989=T 6.682101484=T 0.420239694=T pbc="F F F"
C        0.85705036       0.03580431      -0.04554694
C        2.11897345       0.12227357       0.38816939
C        3.02238017       1.31808471       0.26362991
C        2.35199044       2.68550005       0.01711841
C        3.30953734       3.71531267       0.67783423
C        4.43907072       2.85770107       1.28372089
N        3.78283476       1.56363094       1.50629084
H        0.28533689      -0.88670366       0.06426466
H        0.35026626       0.87460557      -0.52710443
H        2.57742289      -0.75723354       0.85542283
H        3.71696737       1.12087521      -0.59000114
H        1.36846408       2.70499843       0.50755417
H        2.19958634       2.87378673      -1.05414537
H        3.70297461       4.44757055      -0.04024829
H        2.78559911       4.27298698       1.46599397
H        5.28296797       2.79071057       0.56235293
H        4.83077623       3.26422243       2.22777009
H        4.46284101       0.81970342       1.68087387
