18
Properties=species:S:1:pos:R:3 -1824.5766522988647=T 11.254612=T 12.14709=T -8.5074=T -6.4451=T -10.025=T 0.8822=T -0.0657=T 3.154=T 9.31363=T -2.85113=T 8.2082823538=T 10.4377862072=T 0.100593969=T pbc="F F F"
C       -1.25380504      -0.78614149      -0.51816827
C       -1.23438308       0.77766540      -0.52963701
C        0.01613648       1.10034094       0.31594832
C       -0.02119246      -0.01592138       1.38226145
C       -0.00182158      -1.13543953       0.32108899
C        1.24423899      -0.73573789      -0.50141868
N        1.20294291       0.76504912      -0.51822547
H       -1.20334393      -1.21803208      -1.52852432
H       -2.16510239      -1.17280181      -0.03738384
H       -2.14087678       1.19731836      -0.06889424
H       -1.13409254       1.19678346      -1.53949569
H        0.07010276       2.13796300       0.67092419
H       -0.93443018      -0.02004598       1.99686010
H        0.86288471      -0.01344382       2.03814195
H        0.02633800      -2.16936507       0.69007569
H        2.17026806      -1.10867987      -0.03353892
H        1.19962680      -1.13742040      -1.52719306
H        2.03764925       1.12200903      -0.04828119
