20
Properties=species:S:1:pos:R:3 -1912.6455604292046=T 11.602928=T 12.93936=T -11.043=T -8.6275=T -12.297=T 0.9703=T 0.0876=T 3.03=T 12.11313=T -2.7359=T 10.459954904=T 10.8120255496=T 0.195923991=T pbc="F F F"
C        0.91834851      -0.09293862       0.04818765
C        2.43716121      -0.02368524       0.23393973
C        3.03493123       1.39253566       0.13618709
C        2.49639100       2.31823593       1.23518751
C        4.57544255       1.37466618       0.17525146
C        5.25289282       0.65604436      -0.99442844
H        0.56723059      -1.13485971       0.05798194
H        0.61840202       0.34920478      -0.91508734
H        0.37771446       0.44161178       0.84237284
H        2.90929835      -0.66605643      -0.52660569
H        2.71266910      -0.45647539       1.21358955
H        2.73273051       1.81356667      -0.84359090
H        2.76779013       1.93585388       2.23284968
H        1.40266182       2.41417942       1.19967801
H        2.92024809       3.32906367       1.14022186
H        4.90084077       0.92156226       1.12969299
H        4.92913058       2.41962012       0.20293628
H        5.01731134      -0.41754544      -1.01603421
H        6.34680139       0.74721131      -0.93183484
H        4.93820354       1.08548480      -1.95871517
