14
Properties=species:S:1:pos:R:3 -1503.3444710267097=T 10.588629=T 10.9288=T -8.8388=T -6.6356=T -8.711=T 1.4463=T -0.0501=T 1.359=T 8.4073=T -0.76424=T 5.9895900796=T 11.5224405324=T 0.265651595=T pbc="F F F"
C        1.05326263      -0.00067167       0.19368923
C        2.37604255      -0.00112215      -0.00500857
C        3.25406033      -1.24021336      -0.15873529
C        4.60568003      -0.67154303      -0.51132256
C        4.60693449       0.66907670      -0.50602993
C        3.25638671       1.23748920      -0.14894582
H        0.48906254       0.92985152       0.28184497
H        0.48731933      -0.93079897       0.27449335
H        2.86809359      -1.92431720      -0.93374487
H        3.29352697      -1.82987917       0.77530657
H        5.47130005      -1.29789528      -0.73106592
H        5.47372648       1.29552149      -0.72084405
H        3.29699351       1.81963347       0.78975738
H        2.87171081       1.92845846      -0.91848448
