18
Properties=species:S:1:pos:R:3 -1782.9269373905897=T 11.37794=T 12.74472=T -9.1253=T -7.193=T -10.457=T 0.7265=T -0.2242=T 0.611=T 9.52365=T 0.07456=T 4.3483378032=T 12.4233972=T 0.182815673=T pbc="F F F"
C        1.86835613      -0.09116245      -1.27963387
C        2.42237969       0.24060981       0.10706950
N        3.11458945       1.52409076       0.16653929
C        4.45351784       1.64576886      -0.11605686
O        5.16725987       0.67159337      -0.35872756
C        4.98216955       3.08299697      -0.09321575
C        6.48946454       3.15639237      -0.31555406
H        1.35809881      -1.06533116      -1.26421910
H        2.68420834      -0.14263326      -2.01347973
H        1.14445578       0.66621959      -1.61505330
H        3.15359243      -0.52141320       0.41044208
H        1.61649393       0.25195053       0.85650859
H        2.56442761       2.37049494       0.27978592
H        4.70575797       3.54521947       0.86918438
H        4.44923406       3.65606751      -0.87140648
H        7.02822955       2.60388818       0.46535551
H        6.83158581       4.20017572      -0.30550425
H        6.76350864       2.70600199      -1.27829433
