18
Properties=species:S:1:pos:R:3 -1682.923647676538=T 10.638877=T 11.70583=T -9.146=T -6.8501=T -10.484=T 0.9529=T -0.0184=T 3.072=T 9.88212=T -2.75178=T 8.448096075=T 13.752031176=T 0.088939286=T pbc="F F F"
C        3.20602356      -0.99806578       0.28547494
O        2.57178526       0.01200041       1.07306856
C        2.87725938       1.33091189       0.63863224
C        1.90829128       2.27302310       1.36599653
N        1.85341610       2.03310258       2.81267437
O        4.25642136       1.64471876       0.73690412
C        4.82353756       1.63131828       2.05832071
H        2.86677625      -1.96360838       0.67995422
H        4.30348112      -0.93550367       0.35274951
H        2.91035466      -0.91329931      -0.77623307
H        2.68976379       1.41423256      -0.45027859
H        0.93112986       2.16383927       0.85264056
H        2.25778812       3.30120964       1.18336650
H        1.56343727       1.06503354       2.97271846
H        1.13444203       2.62787030       3.22868842
H        5.90758571       1.72440242       1.91360963
H        4.60141268       0.68841994       2.58206732
H        4.44855400       2.46456444       2.66984556
