14
Properties=species:S:1:pos:R:3 -1390.6540030156712=T 9.547964=T 10.46397=T -9.5538=T -7.4147=T -10.518=T 0.9178=T -0.2172=T 1.363=T 9.79453=T -0.99503=T 5.3783762954=T 12.0295432724=T 0.194338298=T pbc="F F F"
C        0.75993200      -0.49260662       0.08468897
C        2.24652021      -0.19942581      -0.07122787
N        2.52383909       1.21822316       0.20735285
C        3.93328781       1.57986813       0.10170825
C        4.83166553       0.86657594       1.03542856
N        5.47801209       0.27608339       1.80771157
H        0.54623197      -1.53985779      -0.16867933
H        0.16171098       0.15593029      -0.57016091
H        0.43018301      -0.33053865       1.12258510
H        2.56059360      -0.39463655      -1.11081314
H        2.83586446      -0.88087931       0.57516451
H        2.18693905       1.45063675       1.14644430
H        4.04797238       2.66067850       0.27428199
H        4.28067785       1.38248858      -0.92536486
