19
Properties=species:S:1:pos:R:3 -1886.908805062196=T 11.45449=T 12.76194=T -9.2737=T -7.0676=T -11.357=T 0.9026=T -0.0064=T 2.842=T 10.64748=T -2.57502=T 9.1788571604=T 10.8399347982=T 0.12202197=T pbc="F F F"
C        1.04529542       0.01722490      -0.19624731
C        2.54810676       0.02797872       0.06535736
C        3.00128235       1.08201584       1.07983303
O        4.25587453       0.63042764       1.62300613
C        4.44841780      -0.75101476       1.26260850
C        3.11796972      -1.25861267       0.69702864
C        3.25622280      -2.44709579      -0.24938896
H        0.77020957      -0.75811865      -0.92586505
H        0.70036916       0.98140586      -0.59824079
H        0.48761565      -0.17851874       0.73318522
H        3.08381993       0.20297055      -0.88646806
H        2.25735775       1.17819446       1.89576734
H        3.15214958       2.07753271       0.63282501
H        5.24726141      -0.82289607       0.49820494
H        4.77694481      -1.30558125       2.15641640
H        2.45998228      -1.53888242       1.54087556
H        3.88418443      -2.18634960      -1.11587699
H        2.27741477      -2.77656677      -0.62687760
H        3.71944127      -3.30886395       0.25361662
