17
Properties=species:S:1:pos:R:3 -1717.6533952849654=T 11.804966=T 13.08516=T -9.8556=T -7.5329=T -9.757=T 0.8425=T -0.1364=T 2.287=T 9.31002=T -1.9409=T 4.355132236=T 10.7690272048=T 0.24399007=T pbc="F F F"
C        0.93327054      -0.06642780       0.05243875
C        2.46032769      -0.01539222       0.03000940
O        2.98036151      -0.77803800      -1.06484274
C        3.01522108       1.43873583       0.01874812
C        2.52466928       2.27766802       1.21780497
C        4.47679506       1.43997068      -0.03539158
C        5.69036831       1.46807700      -0.03679888
H        0.51575849       0.35319834       0.97773694
H        0.60774786      -1.11200902      -0.02541448
H        0.50681421       0.49096020      -0.79810738
H        2.85977187      -0.52066222       0.92505343
H        2.66636640      -0.36626818      -1.89094343
H        2.64071884       1.91618262      -0.90893495
H        2.79918382       1.79251174       2.16568091
H        1.43546617       2.41028177       1.19128948
H        2.99190036       3.27038700       1.20124115
H        6.76089850       1.47433425      -0.04952972
