19
Properties=species:S:1:pos:R:3 -1820.6451598716296=T 11.828795=T 12.73996=T -8.6779=T -6.5709=T -9.974=T 0.8637=T -0.0775=T 3.167=T 9.32683=T -2.86319=T 8.037020492=T 11.143613708=T 0.108493975=T pbc="F F F"
C        1.89927422      -0.27519545      -1.38821748
N        2.13886562       0.41142982      -0.12011463
C        3.24240886       1.37889794      -0.17712087
C        2.79310229       2.72937520      -0.79200310
C        2.63994020       3.65384610       0.43127805
N        3.68012022       3.23438751       1.38795267
C        3.69586765       1.76664791       1.26702777
H        1.12846199      -1.04599859      -1.24877093
H        2.80473191      -0.75530997      -1.81777725
H        1.52007256       0.43764758      -2.13555444
H        2.35483261      -0.28708601       0.59572426
H        4.10116183       0.96843180      -0.75169038
H        1.86484592       2.61997458      -1.37094319
H        3.57043701       3.12229499      -1.46640747
H        2.73372358       4.72330325       0.19856232
H        1.65496704       3.49570068       0.90100643
H        4.58016217       3.59694617       1.05954541
H        4.68589889       1.36887857       1.52874646
H        2.96172545       1.34917791       1.97894639
