20
Properties=species:S:1:pos:R:3 -1887.95060947665=T 11.92305=T 13.13084=T -9.0956=T -6.9468=T -10.153=T 0.8184=T -0.1203=T 2.851=T 9.48347=T -2.56397=T 8.1079652812=T 11.6929832754=T 0.133094862=T pbc="F F F"
C        1.29566810       2.53445745       0.34789222
N        2.70209340       2.30790052       0.69085280
C        3.43053094       1.55849138      -0.34903929
C        4.92685310       1.42708863      -0.02880761
C        5.61902079       0.54742882      -1.07515659
C        5.60838080       2.80385215       0.05715473
O        5.10811850       3.63228861       1.10012501
H        0.78671093       3.02792826       1.18663651
H        0.74594801       1.60447502       0.09867862
H        1.23744961       3.20409993      -0.52290048
H        2.74965814       1.77507923       1.56463929
H        3.31484496       2.11645931      -1.29634956
H        2.98753772       0.55307362      -0.52018785
H        5.02771228       0.94477845       0.96220332
H        5.56797776       1.00671867      -2.07543734
H        5.15018966      -0.44536193      -1.13989558
H        6.68069026       0.40244830      -0.82942024
H        5.51241612       3.30280110      -0.93281408
H        6.68646514       2.66798850       0.24456141
H        4.12542381       3.51422400       1.06602469
